unknown|11k_best|sdf|8299|dock1
  -GOLD-   3 721 1 83D 1   1.00000     0.00000

 32 36  0  0  0  0  0  0  0  0  1 V2000
  -42.8190  -18.3915  -17.4838 C   0  0  0  0  0  0  0  0  0  0  0  0
  -43.7918  -19.1675  -16.7189 N   0  0  0  0  0  0  0  0  0  0  0  0
  -45.0763  -18.5405  -16.8722 C   0  0  0  0  0  0  0  0  0  0  0  0
  -45.1506  -17.1486  -16.3281 C   0  0  0  0  0  0  0  0  0  0  0  0
  -43.9919  -16.7521  -15.5696 N   0  0  0  0  0  0  0  0  0  0  0  0
  -44.0679  -15.4724  -14.9288 C   0  0  0  0  0  0  0  0  0  0  0  0
  -43.2929  -15.1771  -13.8152 C   0  0  0  0  0  0  0  0  0  0  0  0
  -43.7749  -14.3586  -12.8030 C   0  0  0  0  0  0  0  0  0  0  0  0
  -45.0345  -13.7940  -12.9287 C   0  0  0  0  0  0  0  0  0  0  0  0
  -45.7681  -13.5210  -11.7422 N   0  0  0  0  0  0  0  0  0  0  0  0
  -47.1579  -13.2155  -11.7824 C   0  0  0  0  0  0  0  0  0  0  0  0
  -47.7340  -13.0131  -12.8770 O   0  0  0  0  0  0  0  0  0  0  0  0
  -47.8260  -12.9779  -10.4648 C   0  0  0  0  0  0  0  0  0  0  0  0
  -49.2382  -13.4764  -10.5970 C   0  0  0  0  0  0  0  0  0  0  0  0
  -49.9460  -13.6260   -9.2792 C   0  0  0  0  0  0  0  0  0  0  0  0
  -50.9484  -12.6194   -9.0485 N   0  0  0  0  0  0  0  0  0  0  0  0
  -51.0261  -11.3986   -9.7860 C   0  0  0  0  0  0  0  0  0  0  0  0
  -50.7495  -11.0326  -11.0870 C   0  0  0  0  0  0  0  0  0  0  0  0
  -51.1121   -9.7702  -11.5365 C   0  0  0  0  0  0  0  0  0  0  0  0
  -52.0371   -8.9850  -10.8600 C   0  0  0  0  0  0  0  0  0  0  0  0
  -52.4120   -9.4283   -9.5978 C   0  0  0  0  0  0  0  0  0  0  0  0
  -53.1860   -8.6514   -8.7459 C   0  0  0  0  0  0  0  0  0  0  0  0
  -53.5295   -9.1536   -7.4967 C   0  0  0  0  0  0  0  0  0  0  0  0
  -53.1586  -10.4415   -7.1326 C   0  0  0  0  0  0  0  0  0  0  0  0
  -52.4057  -11.2017   -7.9947 C   0  0  0  0  0  0  0  0  0  0  0  0
  -51.7789  -10.5242   -9.0324 C   0  0  0  0  0  0  0  0  0  0  0  0
  -51.8585  -12.5448   -7.9711 C   0  0  0  0  0  0  0  0  0  0  0  0
  -52.2550  -13.4886   -7.2525 O   0  0  0  0  0  0  0  0  0  0  0  0
  -45.5502  -13.6942  -14.1929 C   0  0  0  0  0  0  0  0  0  0  0  0
  -45.1603  -14.6390  -15.1347 C   0  0  0  0  0  0  0  0  0  0  0  0
  -43.1214  -17.7251  -14.9154 C   0  0  0  0  0  0  0  0  0  0  0  0
  -43.4590  -19.1387  -15.3032 C   0  0  0  0  0  0  0  0  0  0  0  0
  1  2  1  0  0  0  0
  2  3  1  0  0  0  0
  3  4  1  0  0  0  0
  4  5  1  0  0  0  0
  5  6  1  0  0  0  0
  6  7  2  0  0  0  0
  7  8  1  0  0  0  0
  8  9  2  0  0  0  0
  9 10  1  0  0  0  0
 10 11  1  0  0  0  0
 11 12  2  0  0  0  0
 11 13  1  0  0  0  0
 13 14  1  0  0  0  0
 14 15  1  0  0  0  0
 15 16  1  0  0  0  0
 16 17  1  0  0  0  0
 17 18  2  0  0  0  0
 18 19  1  0  0  0  0
 19 20  2  0  0  0  0
 20 21  1  0  0  0  0
 21 22  2  0  0  0  0
 22 23  1  0  0  0  0
 23 24  2  0  0  0  0
 24 25  1  0  0  0  0
 25 26  2  0  0  0  0
 25 27  1  0  0  0  0
 27 28  2  0  0  0  0
  9 29  1  0  0  0  0
 29 30  2  0  0  0  0
  5 31  1  0  0  0  0
 31 32  1  0  0  0  0
 32  2  1  0  0  0  0
 30  6  1  0  0  0  0
 27 16  1  0  0  0  0
 26 17  1  0  0  0  0
 26 21  1  0  0  0  0
M  END
>  <zinc_id>  (299) 
ZINC000219475560

>  <smiles>  (299) 
CN1CCN(c2ccc(NC(=O)CCCN3C(=O)c4cccc5cccc3c45)cc2)CC1

>  <source_line>  (299) 
299

>  <source_data>  (299) 
ZINC000219475560

>  <source_name>  (299) 


>  <source_label>  (299) 
ZINC000219475560

>  <found_by>  (299) 
ZINC

> <Gold.Version>
5.8.1

> <Gold.Id.Protein>
ID|ID_protein|mol2

> <Gold.Goldscore.Fitness>
58.3244

> <Gold.Goldscore.Internal.Vdw>
-0.0814

> <Gold.Goldscore.Internal.Torsion>
-5.9613

> <Gold.Goldscore.External.Vdw>
44.5970

> <Gold.Goldscore.Internal.HBond>
0.0000

> <Gold.Goldscore.External.HBond>
1.7103

> <Gold.Goldscore.Internal.Correction>
-1.3360

> <Gold.Goldscore.Hbonds>
donor molecule, donor type, donor heavy atom, donor atom, acceptor molecule, acceptor atom, score
      P1  H   441  4840       L1    12  0.26
      P1  H  1822  6079       L1     2  0.07

> <Gold.Goldscore.Internal.Vdw.Weighted>
-0.0814

> <Gold.Goldscore.Internal.Torsion.Weighted>
-5.9613

> <Gold.Goldscore.External.Vdw.Weighted>
61.3209

> <Gold.Goldscore.Internal.HBond.Weighted>
0.0000

> <Gold.Goldscore.External.HBond.Weighted>
1.7103

> <Gold.Goldscore.Internal.Correction.Weighted>
-1.3360

> <Gold.Protein.RotatedTorsions>
[ 4464  112  111  109 ] final  103.60 input   60.00 | X-H torsion
[ 4839  441  440  439 ] final   70.99 input   60.00 | X-H torsion
[ 4985  758  757  756 ] final  158.44 input   60.00 | X-H torsion
[ 5271 1023 1022 1020 ] final   86.94 input   60.00 | X-H torsion
[ 6036 1776 1775 1774 ] final   69.91 input   60.00 | X-H torsion
[ 6078 1819 1818 1817 ] final  103.91 input   60.00 | X-H torsion
[ 6166 1916 1915 1913 ] final   89.30 input   60.00 | X-H torsion
[ 4818   65   64   63 ] final   44.66 input   60.00 | X-H torsion
[ 6268 1997 1996 1994 ] final  -83.51 input   60.00 | X-H torsion
[ 8592   72   71   70 ] final   36.04 input   60.00 | X-H torsion
[ 4356  100   99   97 ] final  159.63 input   60.00 | X-H torsion
[ 8510  202  201  200 ] final   54.07 input   60.00 | X-H torsion
[ 5330 1065 1064 1063 ] final   78.13 input   60.00 | X-H torsion
[ 6640 2347 2346 2344 ] final  130.00 input   60.00 | X-H torsion
[ 4452  380  379  378 ] final  -10.65 input   60.00 | X-H torsion
[ 4500  391  390  389 ] final  172.11 input   60.00 | X-H torsion

> <Gold.Protein.ActiveResidues>
 THR8    THR9    PRO10   ILE11   TYR12   TYR13   VAL14   ASN15   ALA16   HIS19  
 HIS22   SER25   VAL29   MET46   THR47   GLY48   THR49   ASP50   GLU51   HIS52  
 GLY53   GLN54   LYS55   VAL56   ALA57   GLU58   THR71   PHE78   ILE93   THR95  
 THR96   HIS100  GLU101  VAL104  TRP108  TYR126  VAL128  SER129  ASP130  GLU131 
 SER132  LEU210  SER211  ILE212  SER213  ARG214  LYS215  ARG216  SER218  VAL219 
 MET220  ASN221  TRP222  SER223  ILE224  PRO225  VAL226  HIS232  CYS233  ILE234 
 TYR235  VAL236  TRP237  LEU238  ASP239  ALA240  LEU241  PHE242  ASN243  TYR244 
 TYR245  THR246  HIS275  VAL276  VAL277  GLY278  LYS279  ASP280  ILE281  LEU282 
 LYS283  PHE284  HIS285  ALA286  ILE287  TYR288  TRP289  PRO290  PHE292  LEU304 
 TRP309 

> <Gold.Protein.RotatedAtoms>
  -31.9816   -7.8428   -6.4666 H   0  0  0  0  0  0  0  0  0  0  0  0  # atno 4356 bound_to 100 
  -31.2452   -9.7738   -9.0895 H   0  0  0  0  0  0  0  0  0  0  0  0  # atno 4452 bound_to 380 
  -46.1129  -11.2408  -15.4020 H   0  0  0  0  0  0  0  0  0  0  0  0  # atno 4464 bound_to 112 
  -34.7626   -9.8100  -16.9203 H   0  0  0  0  0  0  0  0  0  0  0  0  # atno 4500 bound_to 391 
  -31.2461  -15.0631   -3.0768 H   0  0  0  0  0  0  0  0  0  0  0  0  # atno 4818 bound_to 65  
  -48.5789  -11.1085  -14.6018 H   0  0  0  0  0  0  0  0  0  0  0  0  # atno 4839 bound_to 441 
  -47.9301  -11.5681  -13.1473 H   0  0  0  0  0  0  0  0  0  0  0  0  # atno 4840 bound_to 441 
  -49.4669  -10.9502  -13.2112 H   0  0  0  0  0  0  0  0  0  0  0  0  # atno 4841 bound_to 441 
  -38.4379  -17.5060  -15.7443 H   0  0  0  0  0  0  0  0  0  0  0  0  # atno 4985 bound_to 758 
  -54.4121  -17.7311  -14.9426 H   0  0  0  0  0  0  0  0  0  0  0  0  # atno 5271 bound_to 1023
  -54.4914  -14.5686   -8.2197 H   0  0  0  0  0  0  0  0  0  0  0  0  # atno 5330 bound_to 1065
  -55.0961  -16.5639  -18.2680 H   0  0  0  0  0  0  0  0  0  0  0  0  # atno 6036 bound_to 1776
  -46.3787  -17.5437  -19.5779 H   0  0  0  0  0  0  0  0  0  0  0  0  # atno 6078 bound_to 1819
  -50.6241  -15.7532  -11.4258 H   0  0  0  0  0  0  0  0  0  0  0  0  # atno 6166 bound_to 1916
  -34.7873  -15.6142   -3.9404 H   0  0  0  0  0  0  0  0  0  0  0  0  # atno 6268 bound_to 1997
  -48.8963  -19.9477   -1.3762 H   0  0  0  0  0  0  0  0  0  0  0  0  # atno 6640 bound_to 2347
  -35.1961   -5.8743   -2.1095 H   0  0  0  0  0  0  0  0  0  0  0  0  # atno 8510 bound_to 202 
  -32.1754   -9.5060   -3.4624 H   0  0  0  0  0  0  0  0  0  0  0  0  # atno 8592 bound_to 72  
  -44.8111  -11.7433  -16.2392 LP  0  0  0  0  0  0  0  0  0  0  0  0  # atno 8618 bound_to 112 
  -45.4788  -10.2877  -16.5585 LP  0  0  0  0  0  0  0  0  0  0  0  0  # atno 8619 bound_to 112 
  -37.1502  -18.2322  -16.4244 LP  0  0  0  0  0  0  0  0  0  0  0  0  # atno 8637 bound_to 758 
  -38.2307  -17.4388  -17.3569 LP  0  0  0  0  0  0  0  0  0  0  0  0  # atno 8638 bound_to 758 
  -54.3017  -17.0926  -13.4498 LP  0  0  0  0  0  0  0  0  0  0  0  0  # atno 8642 bound_to 1023
  -54.7562  -16.1578  -14.7093 LP  0  0  0  0  0  0  0  0  0  0  0  0  # atno 8643 bound_to 1023
  -53.4798  -16.3756  -18.2496 LP  0  0  0  0  0  0  0  0  0  0  0  0  # atno 8662 bound_to 1776
  -54.1751  -17.5729  -17.3837 LP  0  0  0  0  0  0  0  0  0  0  0  0  # atno 8663 bound_to 1776
  -44.8590  -17.0648  -19.2475 LP  0  0  0  0  0  0  0  0  0  0  0  0  # atno 8672 bound_to 1819
  -45.6480  -18.0557  -18.2170 LP  0  0  0  0  0  0  0  0  0  0  0  0  # atno 8673 bound_to 1819
  -49.4336  -15.0554  -12.2884 LP  0  0  0  0  0  0  0  0  0  0  0  0  # atno 8684 bound_to 1916
  -49.1924  -15.4384  -10.7194 LP  0  0  0  0  0  0  0  0  0  0  0  0  # atno 8685 bound_to 1916
  -30.4273  -16.4351   -2.7683 LP  0  0  0  0  0  0  0  0  0  0  0  0  # atno 8712 bound_to 65  
  -31.6024  -16.4195   -3.9022 LP  0  0  0  0  0  0  0  0  0  0  0  0  # atno 8713 bound_to 65  
  -35.8672  -15.9020   -5.1232 LP  0  0  0  0  0  0  0  0  0  0  0  0  # atno 8724 bound_to 1997
  -34.5635  -14.9628   -5.4148 LP  0  0  0  0  0  0  0  0  0  0  0  0  # atno 8725 bound_to 1997
  -32.8294   -9.2814   -4.9355 LP  0  0  0  0  0  0  0  0  0  0  0  0  # atno 8747 bound_to 72  
  -31.5153   -8.4240   -4.4830 LP  0  0  0  0  0  0  0  0  0  0  0  0  # atno 8748 bound_to 72  
  -33.1692   -8.1530   -5.3983 LP  0  0  0  0  0  0  0  0  0  0  0  0  # atno 8749 bound_to 100 
  -32.7531   -6.6104   -5.7358 LP  0  0  0  0  0  0  0  0  0  0  0  0  # atno 8750 bound_to 100 
  -35.0273   -7.1971   -1.1769 LP  0  0  0  0  0  0  0  0  0  0  0  0  # atno 8754 bound_to 202 
  -35.6540   -7.3282   -2.6791 LP  0  0  0  0  0  0  0  0  0  0  0  0  # atno 8755 bound_to 202 
  -53.7899  -16.0202   -7.9988 LP  0  0  0  0  0  0  0  0  0  0  0  0  # atno 8775 bound_to 1065
  -54.4732  -15.2399   -6.7375 LP  0  0  0  0  0  0  0  0  0  0  0  0  # atno 8776 bound_to 1065
  -49.4773  -21.4394   -1.6683 LP  0  0  0  0  0  0  0  0  0  0  0  0  # atno 8779 bound_to 2347
  -49.3221  -20.3668   -2.8898 LP  0  0  0  0  0  0  0  0  0  0  0  0  # atno 8780 bound_to 2347
  -30.4326   -8.4184   -9.4777 LP  0  0  0  0  0  0  0  0  0  0  0  0  # atno 8787 bound_to 380 
  -30.6201   -8.8412   -7.9116 LP  0  0  0  0  0  0  0  0  0  0  0  0  # atno 8788 bound_to 380 

$$$$
