unknown|11k_best|sdf|8253|dock8
  -GOLD-   3 721 0103D 1   1.00000     0.00000

 31 33  0  0  0  0  0  0  0  0  1 V2000
  -40.9576  -16.7314   -5.8541 C   0  0  0  0  0  0  0  0  0  0  0  0
  -42.2692  -16.2570   -6.0270 O   0  0  0  0  0  0  0  0  0  0  0  0
  -42.7453  -15.0909   -5.4193 C   0  0  0  0  0  0  0  0  0  0  0  0
  -41.8843  -14.3910   -4.8233 O   0  0  0  0  0  0  0  0  0  0  0  0
  -44.1283  -14.6337   -5.6121 C   0  0  0  0  0  0  0  0  0  0  0  0
  -44.5090  -13.3254   -5.3343 C   0  0  0  0  0  0  0  0  0  0  0  0
  -45.3079  -12.6189   -6.2259 C   0  0  0  0  0  0  0  0  0  0  0  0
  -45.9416  -13.2654   -7.2799 C   0  0  0  0  0  0  0  0  0  0  0  0
  -46.1327  -12.5675   -8.5167 N   0  0  0  0  0  0  0  0  0  0  0  0
  -46.6018  -13.2730   -9.6443 C   0  0  0  0  0  0  0  0  0  0  0  0
  -46.9903  -14.4661   -9.4642 O   0  0  0  0  0  0  0  0  0  0  0  0
  -46.7226  -12.7182  -11.0036 C   0  0  0  0  0  0  0  0  0  0  0  0
  -45.3944  -13.2327  -12.1067 S   0  0  0  0  0  0  0  0  0  0  0  0
  -46.0768  -13.6466  -13.7143 C   0  0  0  0  0  0  0  0  0  0  0  0
  -47.0566  -13.0053  -14.3970 N   0  0  0  0  0  0  0  0  0  0  0  0
  -47.5948  -13.8768  -15.2492 N   0  0  0  0  0  0  0  0  0  0  0  0
  -46.8725  -15.0236  -15.2494 C   0  0  0  0  0  0  0  0  0  0  0  0
  -47.2993  -16.3463  -15.7220 C   0  0  0  0  0  0  0  0  0  0  0  0
  -48.5247  -16.5640  -16.2923 C   0  0  0  0  0  0  0  0  0  0  0  0
  -48.7380  -17.6085  -17.1834 C   0  0  0  0  0  0  0  0  0  0  0  0
  -47.9153  -18.7144  -17.0488 C   0  0  0  0  0  0  0  0  0  0  0  0
  -48.3231  -19.9892  -17.4466 O   0  0  0  0  0  0  0  0  0  0  0  0
  -48.0992  -21.0952  -16.5895 C   0  0  0  0  0  0  0  0  0  0  0  0
  -46.6261  -18.4645  -16.5960 C   0  0  0  0  0  0  0  0  0  0  0  0
  -46.2811  -17.2221  -16.0780 C   0  0  0  0  0  0  0  0  0  0  0  0
  -45.7960  -14.7264  -14.4819 N   0  0  0  0  0  0  0  0  0  0  0  0
  -44.6098  -15.5321  -14.3727 C   0  0  0  0  0  0  0  0  0  0  0  0
  -44.0170  -15.8285  -15.7454 C   0  0  0  0  0  0  0  0  0  0  0  0
  -43.5367  -14.8019  -13.5987 C   0  0  0  0  0  0  0  0  0  0  0  0
  -45.9195  -14.6534   -7.2187 C   0  0  0  0  0  0  0  0  0  0  0  0
  -45.0258  -15.3393   -6.4049 C   0  0  0  0  0  0  0  0  0  0  0  0
  1  2  1  0  0  0  0
  2  3  1  0  0  0  0
  3  4  2  0  0  0  0
  3  5  1  0  0  0  0
  5  6  2  0  0  0  0
  6  7  1  0  0  0  0
  7  8  2  0  0  0  0
  8  9  1  0  0  0  0
  9 10  1  0  0  0  0
 10 11  2  0  0  0  0
 10 12  1  0  0  0  0
 12 13  1  0  0  0  0
 13 14  1  0  0  0  0
 14 15  2  0  0  0  0
 15 16  1  0  0  0  0
 16 17  2  0  0  0  0
 17 18  1  0  0  0  0
 18 19  2  0  0  0  0
 19 20  1  0  0  0  0
 20 21  2  0  0  0  0
 21 22  1  0  0  0  0
 22 23  1  0  0  0  0
 21 24  1  0  0  0  0
 24 25  2  0  0  0  0
 17 26  1  0  0  0  0
 26 27  1  0  0  0  0
 27 28  1  0  0  0  0
 27 29  1  0  0  0  0
  8 30  1  0  0  0  0
 30 31  2  0  0  0  0
 31  5  1  0  0  0  0
 26 14  1  0  0  0  0
 25 18  1  0  0  0  0
M  END
>  <zinc_id>  (253) 
ZINC000008882896

>  <smiles>  (253) 
COC(=O)c1ccc(NC(=O)CSc2nnc(-c3ccc(OC)cc3)n2C(C)C)cc1

>  <source_line>  (253) 
253

>  <source_data>  (253) 
ZINC000008882896

>  <source_name>  (253) 


>  <source_label>  (253) 
ZINC000008882896

>  <found_by>  (253) 
ZINC

> <Gold.Version>
5.8.1

> <Gold.Id.Protein>
ID|ID_protein|mol2

> <Gold.Goldscore.Fitness>
66.4019

> <Gold.Goldscore.Internal.Vdw>
-1.3245

> <Gold.Goldscore.Internal.Torsion>
-11.2841

> <Gold.Goldscore.External.Vdw>
53.1996

> <Gold.Goldscore.Internal.HBond>
0.0000

> <Gold.Goldscore.External.HBond>
3.4930

> <Gold.Goldscore.Internal.Correction>
-2.3680

> <Gold.Goldscore.Hbonds>
donor molecule, donor type, donor heavy atom, donor atom, acceptor molecule, acceptor atom, score
      P1  H   112  4464       L1    15  0.22
      P1  H   441  4840       L1    15  0.51

> <Gold.Goldscore.Internal.Vdw.Weighted>
-1.3245

> <Gold.Goldscore.Internal.Torsion.Weighted>
-11.2841

> <Gold.Goldscore.External.Vdw.Weighted>
73.1495

> <Gold.Goldscore.Internal.HBond.Weighted>
0.0000

> <Gold.Goldscore.External.HBond.Weighted>
3.4930

> <Gold.Goldscore.Internal.Correction.Weighted>
-2.3680

> <Gold.Protein.RotatedTorsions>
[ 4464  112  111  109 ] final   53.77 input   60.00 | X-H torsion
[ 4839  441  440  439 ] final   26.16 input   60.00 | X-H torsion
[ 4985  758  757  756 ] final  114.72 input   60.00 | X-H torsion
[ 5271 1023 1022 1020 ] final  -24.42 input   60.00 | X-H torsion
[ 6036 1776 1775 1774 ] final  -62.65 input   60.00 | X-H torsion
[ 6078 1819 1818 1817 ] final  -68.17 input   60.00 | X-H torsion
[ 6166 1916 1915 1913 ] final  -72.66 input   60.00 | X-H torsion
[ 4818   65   64   63 ] final -164.65 input   60.00 | X-H torsion
[ 6268 1997 1996 1994 ] final  171.88 input   60.00 | X-H torsion
[ 8592   72   71   70 ] final  -20.20 input   60.00 | X-H torsion
[ 4356  100   99   97 ] final -131.48 input   60.00 | X-H torsion
[ 8510  202  201  200 ] final -124.07 input   60.00 | X-H torsion
[ 5330 1065 1064 1063 ] final  -61.48 input   60.00 | X-H torsion
[ 6640 2347 2346 2344 ] final   -6.65 input   60.00 | X-H torsion
[ 4452  380  379  378 ] final -116.78 input   60.00 | X-H torsion
[ 4500  391  390  389 ] final -125.66 input   60.00 | X-H torsion

> <Gold.Protein.ActiveResidues>
 THR8    THR9    PRO10   ILE11   TYR12   TYR13   VAL14   ASN15   ALA16   HIS19  
 HIS22   SER25   VAL29   MET46   THR47   GLY48   THR49   ASP50   GLU51   HIS52  
 GLY53   GLN54   LYS55   VAL56   ALA57   GLU58   THR71   PHE78   ILE93   THR95  
 THR96   HIS100  GLU101  VAL104  TRP108  TYR126  VAL128  SER129  ASP130  GLU131 
 SER132  LEU210  SER211  ILE212  SER213  ARG214  LYS215  ARG216  SER218  VAL219 
 MET220  ASN221  TRP222  SER223  ILE224  PRO225  VAL226  HIS232  CYS233  ILE234 
 TYR235  VAL236  TRP237  LEU238  ASP239  ALA240  LEU241  PHE242  ASN243  TYR244 
 TYR245  THR246  HIS275  VAL276  VAL277  GLY278  LYS279  ASP280  ILE281  LEU282 
 LYS283  PHE284  HIS285  ALA286  ILE287  TYR288  TRP289  PRO290  PHE292  LEU304 
 TRP309 

> <Gold.Protein.RotatedAtoms>
  -32.1765   -6.8215   -6.2650 H   0  0  0  0  0  0  0  0  0  0  0  0  # atno 4356 bound_to 100 
  -30.5293   -8.5698   -9.6166 H   0  0  0  0  0  0  0  0  0  0  0  0  # atno 4452 bound_to 380 
  -45.5916  -11.8250  -15.4971 H   0  0  0  0  0  0  0  0  0  0  0  0  # atno 4464 bound_to 112 
  -33.8898   -9.8312  -16.5033 H   0  0  0  0  0  0  0  0  0  0  0  0  # atno 4500 bound_to 391 
  -31.2860  -16.7565   -3.7188 H   0  0  0  0  0  0  0  0  0  0  0  0  # atno 4818 bound_to 65  
  -49.2275  -10.8862  -14.3520 H   0  0  0  0  0  0  0  0  0  0  0  0  # atno 4839 bound_to 441 
  -47.7805  -11.5281  -13.8605 H   0  0  0  0  0  0  0  0  0  0  0  0  # atno 4840 bound_to 441 
  -48.9679  -11.2125  -12.7478 H   0  0  0  0  0  0  0  0  0  0  0  0  # atno 4841 bound_to 441 
  -37.8718  -17.8808  -15.5861 H   0  0  0  0  0  0  0  0  0  0  0  0  # atno 4985 bound_to 758 
  -54.2775  -17.2272  -13.4866 H   0  0  0  0  0  0  0  0  0  0  0  0  # atno 5271 bound_to 1023
  -53.8182  -16.1034   -7.6911 H   0  0  0  0  0  0  0  0  0  0  0  0  # atno 5330 bound_to 1065
  -53.3878  -16.5173  -18.1326 H   0  0  0  0  0  0  0  0  0  0  0  0  # atno 6036 bound_to 1776
  -44.8257  -17.4898  -18.5413 H   0  0  0  0  0  0  0  0  0  0  0  0  # atno 6078 bound_to 1819
  -48.9647  -15.0311  -11.8064 H   0  0  0  0  0  0  0  0  0  0  0  0  # atno 6166 bound_to 1916
  -35.8661  -15.9853   -4.8858 H   0  0  0  0  0  0  0  0  0  0  0  0  # atno 6268 bound_to 1997
  -49.5332  -21.4682   -1.9331 H   0  0  0  0  0  0  0  0  0  0  0  0  # atno 6640 bound_to 2347
  -35.3738   -7.7186   -1.8414 H   0  0  0  0  0  0  0  0  0  0  0  0  # atno 8510 bound_to 202 
  -32.8005   -9.7221   -4.0468 H   0  0  0  0  0  0  0  0  0  0  0  0  # atno 8592 bound_to 72  
  -44.7625  -11.0905  -16.6891 LP  0  0  0  0  0  0  0  0  0  0  0  0  # atno 8618 bound_to 112 
  -46.0525  -10.3521  -16.0129 LP  0  0  0  0  0  0  0  0  0  0  0  0  # atno 8619 bound_to 112 
  -37.2849  -18.0649  -17.0927 LP  0  0  0  0  0  0  0  0  0  0  0  0  # atno 8637 bound_to 758 
  -38.6661  -17.2288  -16.8479 LP  0  0  0  0  0  0  0  0  0  0  0  0  # atno 8638 bound_to 758 
  -54.7439  -16.1115  -14.5756 LP  0  0  0  0  0  0  0  0  0  0  0  0  # atno 8642 bound_to 1023
  -54.4496  -17.6462  -15.0496 LP  0  0  0  0  0  0  0  0  0  0  0  0  # atno 8643 bound_to 1023
  -54.3805  -17.5785  -17.4000 LP  0  0  0  0  0  0  0  0  0  0  0  0  # atno 8662 bound_to 1776
  -54.9946  -16.4170  -18.3697 LP  0  0  0  0  0  0  0  0  0  0  0  0  # atno 8663 bound_to 1776
  -46.3363  -18.0796  -18.6764 LP  0  0  0  0  0  0  0  0  0  0  0  0  # atno 8672 bound_to 1819
  -45.7347  -17.0952  -19.8320 LP  0  0  0  0  0  0  0  0  0  0  0  0  # atno 8673 bound_to 1819
  -49.7983  -15.7021  -10.5804 LP  0  0  0  0  0  0  0  0  0  0  0  0  # atno 8684 bound_to 1916
  -50.4988  -15.5190  -12.0441 LP  0  0  0  0  0  0  0  0  0  0  0  0  # atno 8685 bound_to 1916
  -31.5732  -15.1805   -3.4324 LP  0  0  0  0  0  0  0  0  0  0  0  0  # atno 8712 bound_to 65  
  -30.4163  -15.9686   -2.5915 LP  0  0  0  0  0  0  0  0  0  0  0  0  # atno 8713 bound_to 65  
  -34.7473  -15.0261   -5.5759 LP  0  0  0  0  0  0  0  0  0  0  0  0  # atno 8724 bound_to 1997
  -34.5970  -15.4649   -4.0101 LP  0  0  0  0  0  0  0  0  0  0  0  0  # atno 8725 bound_to 1997
  -32.2206   -8.6679   -5.1424 LP  0  0  0  0  0  0  0  0  0  0  0  0  # atno 8747 bound_to 72  
  -31.4947   -8.8199   -3.6876 LP  0  0  0  0  0  0  0  0  0  0  0  0  # atno 8748 bound_to 72  
  -32.4070   -8.4233   -6.0935 LP  0  0  0  0  0  0  0  0  0  0  0  0  # atno 8749 bound_to 100 
  -33.3190   -7.3686   -5.2435 LP  0  0  0  0  0  0  0  0  0  0  0  0  # atno 8750 bound_to 100 
  -35.5671   -6.4256   -2.8103 LP  0  0  0  0  0  0  0  0  0  0  0  0  # atno 8754 bound_to 202 
  -34.9353   -6.2423   -1.3157 LP  0  0  0  0  0  0  0  0  0  0  0  0  # atno 8755 bound_to 202 
  -54.5962  -14.9595   -6.8341 LP  0  0  0  0  0  0  0  0  0  0  0  0  # atno 8775 bound_to 1065
  -54.3447  -14.7550   -8.4346 LP  0  0  0  0  0  0  0  0  0  0  0  0  # atno 8776 bound_to 1065
  -49.2222  -20.1282   -2.8024 LP  0  0  0  0  0  0  0  0  0  0  0  0  # atno 8779 bound_to 2347
  -48.9359  -20.1467   -1.1949 LP  0  0  0  0  0  0  0  0  0  0  0  0  # atno 8780 bound_to 2347
  -30.5111   -8.6580   -7.9918 LP  0  0  0  0  0  0  0  0  0  0  0  0  # atno 8787 bound_to 380 
  -31.2625   -9.8141   -8.8668 LP  0  0  0  0  0  0  0  0  0  0  0  0  # atno 8788 bound_to 380 

$$$$
