unknown|11k_best|sdf|8330|dock9
  -GOLD-   3 721 1483D 1   1.00000     0.00000

 27 29  0  0  0  0  0  0  0  0  1 V2000
  -49.9971  -15.1302  -16.7154 C   0  0  0  0  0  0  0  0  0  0  0  0
  -48.8448  -14.6692  -16.0141 O   0  0  0  0  0  0  0  0  0  0  0  0
  -47.8625  -15.5963  -15.7182 C   0  0  0  0  0  0  0  0  0  0  0  0
  -47.7905  -16.8515  -16.2630 C   0  0  0  0  0  0  0  0  0  0  0  0
  -46.6264  -17.6082  -16.2227 C   0  0  0  0  0  0  0  0  0  0  0  0
  -45.5064  -17.0530  -15.6611 C   0  0  0  0  0  0  0  0  0  0  0  0
  -44.1412  -17.4442  -16.0349 C   0  0  0  0  0  0  0  0  0  0  0  0
  -44.0742  -18.4056  -16.8608 O   0  0  0  0  0  0  0  0  0  0  0  0
  -43.1402  -17.4510  -15.0576 O   0  0  0  0  0  0  0  0  0  0  0  0
  -45.7022  -15.9870  -14.7938 C   0  0  0  0  0  0  0  0  0  0  0  0
  -46.8467  -15.2049  -14.8815 C   0  0  0  0  0  0  0  0  0  0  0  0
  -46.9428  -13.8304  -13.8185 S   0  0  0  0  0  0  0  0  0  0  0  0
  -48.1728  -13.8287  -12.9763 O   0  0  0  0  0  0  0  0  0  0  0  0
  -46.8139  -12.5801  -14.6529 O   0  0  0  0  0  0  0  0  0  0  0  0
  -45.5428  -13.8786  -12.7945 N   0  0  0  0  0  0  0  0  0  0  0  0
  -45.1955  -12.7350  -12.0315 C   0  0  0  0  0  0  0  0  0  0  0  0
  -45.8125  -11.5395  -12.3501 C   0  0  0  0  0  0  0  0  0  0  0  0
  -45.5678  -10.4222  -11.5679 C   0  0  0  0  0  0  0  0  0  0  0  0
  -44.4670  -10.4844  -10.7408 C   0  0  0  0  0  0  0  0  0  0  0  0
  -44.1179   -9.3313  -10.0050 N   0  0  0  0  0  0  0  0  0  0  0  0
  -44.9231   -8.1611  -10.1649 C   0  0  0  0  0  0  0  0  0  0  0  0
  -45.6046   -8.0927  -11.2282 O   0  0  0  0  0  0  0  0  0  0  0  0
  -44.5218   -6.9380   -9.4243 C   0  0  0  0  0  0  0  0  0  0  0  0
  -44.4981   -5.6122  -10.1052 C   0  0  0  0  0  0  0  0  0  0  0  0
  -43.1978   -6.2985   -9.6897 C   0  0  0  0  0  0  0  0  0  0  0  0
  -43.5715  -11.5423  -10.7961 C   0  0  0  0  0  0  0  0  0  0  0  0
  -43.9052  -12.6622  -11.5339 C   0  0  0  0  0  0  0  0  0  0  0  0
  1  2  1  0  0  0  0
  2  3  1  0  0  0  0
  3  4  2  0  0  0  0
  4  5  1  0  0  0  0
  5  6  2  0  0  0  0
  6  7  1  0  0  0  0
  7  8  2  0  0  0  0
  7  9  1  0  0  0  0
  6 10  1  0  0  0  0
 10 11  2  0  0  0  0
 11 12  1  0  0  0  0
 12 13  2  0  0  0  0
 12 14  2  0  0  0  0
 12 15  1  0  0  0  0
 15 16  1  0  0  0  0
 16 17  2  0  0  0  0
 17 18  1  0  0  0  0
 18 19  2  0  0  0  0
 19 20  1  0  0  0  0
 20 21  1  0  0  0  0
 21 22  2  0  0  0  0
 21 23  1  0  0  0  0
 23 24  1  0  0  0  0
 24 25  1  0  0  0  0
 19 26  1  0  0  0  0
 26 27  2  0  0  0  0
 11  3  1  0  0  0  0
 27 16  1  0  0  0  0
 25 23  1  0  0  0  0
M  END
>  <zinc_id>  (330) 
ZINC000014097406

>  <smiles>  (330) 
COc1ccc(C(=O)O)cc1S(=O)(=O)Nc1ccc(NC(=O)C2CC2)cc1

>  <source_line>  (330) 
330

>  <source_data>  (330) 
ZINC000014097406

>  <source_name>  (330) 


>  <source_label>  (330) 
ZINC000014097406

>  <found_by>  (330) 
ZINC

> <Gold.Version>
5.8.1

> <Gold.Id.Protein>
ID|ID_protein|mol2

> <Gold.Goldscore.Fitness>
77.5040

> <Gold.Goldscore.Internal.Vdw>
-1.9766

> <Gold.Goldscore.Internal.Torsion>
-9.5060

> <Gold.Goldscore.External.Vdw>
48.1843

> <Gold.Goldscore.Internal.HBond>
0.0000

> <Gold.Goldscore.External.HBond>
14.0582

> <Gold.Goldscore.Internal.Correction>
-8.6751

> <Gold.Goldscore.Hbonds>
donor molecule, donor type, donor heavy atom, donor atom, acceptor molecule, acceptor atom, score
      P1  H   112  4464       L1    14  0.18
      P1  H   426  4822       L1     2  0.98
      P1  H   441  4841       L1    14  1.00
      P1  H  1819  6078       L1     8  0.62
      P1  H  1916  6166       L1    13  1.00

> <Gold.Goldscore.Internal.Vdw.Weighted>
-1.9766

> <Gold.Goldscore.Internal.Torsion.Weighted>
-9.5060

> <Gold.Goldscore.External.Vdw.Weighted>
66.2534

> <Gold.Goldscore.Internal.HBond.Weighted>
0.0000

> <Gold.Goldscore.External.HBond.Weighted>
14.0582

> <Gold.Goldscore.Internal.Correction.Weighted>
-8.6751

> <Gold.Protein.RotatedTorsions>
[ 4464  112  111  109 ] final   48.06 input   60.00 | X-H torsion
[ 4839  441  440  439 ] final -109.64 input   60.00 | X-H torsion
[ 4985  758  757  756 ] final  141.68 input   60.00 | X-H torsion
[ 5271 1023 1022 1020 ] final -130.60 input   60.00 | X-H torsion
[ 6036 1776 1775 1774 ] final -109.74 input   60.00 | X-H torsion
[ 6078 1819 1818 1817 ] final  -97.07 input   60.00 | X-H torsion
[ 6166 1916 1915 1913 ] final  -55.40 input   60.00 | X-H torsion
[ 4818   65   64   63 ] final   -2.89 input   60.00 | X-H torsion
[ 6268 1997 1996 1994 ] final  -75.25 input   60.00 | X-H torsion
[ 8592   72   71   70 ] final -115.55 input   60.00 | X-H torsion
[ 4356  100   99   97 ] final  130.31 input   60.00 | X-H torsion
[ 8510  202  201  200 ] final   23.74 input   60.00 | X-H torsion
[ 5330 1065 1064 1063 ] final   17.52 input   60.00 | X-H torsion
[ 6640 2347 2346 2344 ] final   64.48 input   60.00 | X-H torsion
[ 4452  380  379  378 ] final   31.11 input   60.00 | X-H torsion
[ 4500  391  390  389 ] final  144.90 input   60.00 | X-H torsion

> <Gold.Protein.ActiveResidues>
 THR8    THR9    PRO10   ILE11   TYR12   TYR13   VAL14   ASN15   ALA16   HIS19  
 HIS22   SER25   VAL29   MET46   THR47   GLY48   THR49   ASP50   GLU51   HIS52  
 GLY53   GLN54   LYS55   VAL56   ALA57   GLU58   THR71   PHE78   ILE93   THR95  
 THR96   HIS100  GLU101  VAL104  TRP108  TYR126  VAL128  SER129  ASP130  GLU131 
 SER132  LEU210  SER211  ILE212  SER213  ARG214  LYS215  ARG216  SER218  VAL219 
 MET220  ASN221  TRP222  SER223  ILE224  PRO225  VAL226  HIS232  CYS233  ILE234 
 TYR235  VAL236  TRP237  LEU238  ASP239  ALA240  LEU241  PHE242  ASN243  TYR244 
 TYR245  THR246  HIS275  VAL276  VAL277  GLY278  LYS279  ASP280  ILE281  LEU282 
 LYS283  PHE284  HIS285  ALA286  ILE287  TYR288  TRP289  PRO290  PHE292  LEU304 
 TRP309 

> <Gold.Protein.RotatedAtoms>
  -32.1821   -8.2367   -6.2953 H   0  0  0  0  0  0  0  0  0  0  0  0  # atno 4356 bound_to 100 
  -31.1950   -9.7422   -8.4248 H   0  0  0  0  0  0  0  0  0  0  0  0  # atno 4452 bound_to 380 
  -45.5175  -11.8635  -15.5384 H   0  0  0  0  0  0  0  0  0  0  0  0  # atno 4464 bound_to 112 
  -35.1099  -10.0806  -16.9334 H   0  0  0  0  0  0  0  0  0  0  0  0  # atno 4500 bound_to 391 
  -30.6987  -15.3645   -2.6533 H   0  0  0  0  0  0  0  0  0  0  0  0  # atno 4818 bound_to 65  
  -48.7287  -11.3132  -12.7047 H   0  0  0  0  0  0  0  0  0  0  0  0  # atno 4839 bound_to 441 
  -49.3927  -10.8488  -14.1507 H   0  0  0  0  0  0  0  0  0  0  0  0  # atno 4840 bound_to 441 
  -47.8546  -11.4648  -14.1048 H   0  0  0  0  0  0  0  0  0  0  0  0  # atno 4841 bound_to 441 
  -38.2382  -17.6464  -15.6225 H   0  0  0  0  0  0  0  0  0  0  0  0  # atno 4985 bound_to 758 
  -54.7129  -16.0864  -14.3529 H   0  0  0  0  0  0  0  0  0  0  0  0  # atno 5271 bound_to 1023
  -54.0288  -15.3183   -8.5615 H   0  0  0  0  0  0  0  0  0  0  0  0  # atno 5330 bound_to 1065
  -53.4058  -17.1074  -17.6731 H   0  0  0  0  0  0  0  0  0  0  0  0  # atno 6036 bound_to 1776
  -45.0925  -17.7708  -18.2803 H   0  0  0  0  0  0  0  0  0  0  0  0  # atno 6078 bound_to 1819
  -49.1194  -15.0174  -12.0406 H   0  0  0  0  0  0  0  0  0  0  0  0  # atno 6166 bound_to 1916
  -34.6829  -15.5356   -3.9736 H   0  0  0  0  0  0  0  0  0  0  0  0  # atno 6268 bound_to 1997
  -49.1725  -20.8798   -1.0906 H   0  0  0  0  0  0  0  0  0  0  0  0  # atno 6640 bound_to 2347
  -35.0276   -5.9627   -1.6582 H   0  0  0  0  0  0  0  0  0  0  0  0  # atno 8510 bound_to 202 
  -32.5283   -8.9253   -5.1456 H   0  0  0  0  0  0  0  0  0  0  0  0  # atno 8592 bound_to 72  
  -44.7923  -11.0056  -16.7158 LP  0  0  0  0  0  0  0  0  0  0  0  0  # atno 8618 bound_to 112 
  -46.0973  -10.3982  -15.9446 LP  0  0  0  0  0  0  0  0  0  0  0  0  # atno 8619 bound_to 112 
  -37.1485  -18.1995  -16.6971 LP  0  0  0  0  0  0  0  0  0  0  0  0  # atno 8637 bound_to 758 
  -38.4335  -17.3302  -17.2068 LP  0  0  0  0  0  0  0  0  0  0  0  0  # atno 8638 bound_to 758 
  -54.5156  -17.4733  -15.1809 LP  0  0  0  0  0  0  0  0  0  0  0  0  # atno 8642 bound_to 1023
  -54.2394  -17.4332  -13.5720 LP  0  0  0  0  0  0  0  0  0  0  0  0  # atno 8643 bound_to 1023
  -55.0216  -17.3007  -17.6816 LP  0  0  0  0  0  0  0  0  0  0  0  0  # atno 8662 bound_to 1776
  -54.3354  -16.1005  -18.5507 LP  0  0  0  0  0  0  0  0  0  0  0  0  # atno 8663 bound_to 1776
  -46.5034  -17.9047  -19.0799 LP  0  0  0  0  0  0  0  0  0  0  0  0  # atno 8672 bound_to 1819
  -45.2989  -16.9871  -19.6914 LP  0  0  0  0  0  0  0  0  0  0  0  0  # atno 8673 bound_to 1819
  -49.5325  -15.6047  -10.5804 LP  0  0  0  0  0  0  0  0  0  0  0  0  # atno 8684 bound_to 1916
  -50.6088  -15.6301  -11.8082 LP  0  0  0  0  0  0  0  0  0  0  0  0  # atno 8685 bound_to 1916
  -30.7943  -16.8644   -3.2772 LP  0  0  0  0  0  0  0  0  0  0  0  0  # atno 8712 bound_to 65  
  -31.7867  -15.6866   -3.8198 LP  0  0  0  0  0  0  0  0  0  0  0  0  # atno 8713 bound_to 65  
  -35.8775  -15.9517   -4.9973 LP  0  0  0  0  0  0  0  0  0  0  0  0  # atno 8724 bound_to 1997
  -34.6584  -14.9923   -5.5073 LP  0  0  0  0  0  0  0  0  0  0  0  0  # atno 8725 bound_to 1997
  -31.4156   -8.5882   -4.0071 LP  0  0  0  0  0  0  0  0  0  0  0  0  # atno 8747 bound_to 72  
  -32.5738   -9.7020   -3.7163 LP  0  0  0  0  0  0  0  0  0  0  0  0  # atno 8748 bound_to 72  
  -33.3204   -7.7248   -5.2511 LP  0  0  0  0  0  0  0  0  0  0  0  0  # atno 8749 bound_to 100 
  -32.4001   -6.6420   -6.0555 LP  0  0  0  0  0  0  0  0  0  0  0  0  # atno 8750 bound_to 100 
  -35.1967   -7.5683   -1.4540 LP  0  0  0  0  0  0  0  0  0  0  0  0  # atno 8754 bound_to 202 
  -35.6543   -6.8679   -2.8565 LP  0  0  0  0  0  0  0  0  0  0  0  0  # atno 8755 bound_to 202 
  -54.0159  -15.9810   -7.0754 LP  0  0  0  0  0  0  0  0  0  0  0  0  # atno 8775 bound_to 1065
  -54.7129  -14.5241   -7.3168 LP  0  0  0  0  0  0  0  0  0  0  0  0  # atno 8776 bound_to 1065
  -49.5574  -21.1608   -2.6466 LP  0  0  0  0  0  0  0  0  0  0  0  0  # atno 8779 bound_to 2347
  -48.9639  -19.7068   -2.1991 LP  0  0  0  0  0  0  0  0  0  0  0  0  # atno 8780 bound_to 2347
  -30.7602   -8.9295   -9.7660 LP  0  0  0  0  0  0  0  0  0  0  0  0  # atno 8787 bound_to 380 
  -30.3430   -8.3620   -8.2927 LP  0  0  0  0  0  0  0  0  0  0  0  0  # atno 8788 bound_to 380 

$$$$
