unknown|11k_best|sdf|8304|dock1
  -GOLD-   3 721 1143D 1   1.00000     0.00000

 30 32  0  0  0  0  0  0  0  0  1 V2000
  -40.2429  -11.7726  -10.3083 C   0  0  0  0  0  0  0  0  0  0  0  0
  -40.5898  -11.6382   -8.6681 C   0  0  2  0  0  0  0  0  0  0  0  0
  -42.1126  -11.3955   -8.9878 O   0  0  0  0  0  0  0  0  0  0  0  0
  -42.7703  -12.5814   -9.2875 C   0  0  0  0  0  0  0  0  0  0  0  0
  -42.1534  -13.6252   -8.9540 O   0  0  0  0  0  0  0  0  0  0  0  0
  -44.0011  -12.6205  -10.0506 C   0  0  0  0  0  0  0  0  0  0  0  0
  -43.9786  -12.4889  -11.4177 C   0  0  0  0  0  0  0  0  0  0  0  0
  -45.1199  -12.8382  -12.1262 C   0  0  0  0  0  0  0  0  0  0  0  0
  -46.0050  -13.7415  -11.5672 C   0  0  0  0  0  0  0  0  0  0  0  0
  -46.9233  -14.4368  -12.3656 N   0  0  0  0  0  0  0  0  0  0  0  0
  -46.7004  -14.3992  -14.0878 S   0  0  0  0  0  0  0  0  0  0  0  0
  -48.0305  -14.6722  -14.7293 O   0  0  0  0  0  0  0  0  0  0  0  0
  -46.2138  -13.0335  -14.5140 O   0  0  0  0  0  0  0  0  0  0  0  0
  -45.5250  -15.6223  -14.5546 C   0  0  0  0  0  0  0  0  0  0  0  0
  -44.1527  -15.5136  -14.6405 C   0  0  0  0  0  0  0  0  0  0  0  0
  -43.5219  -16.6966  -14.8144 C   0  0  0  0  0  0  0  0  0  0  0  0
  -44.1935  -17.5550  -15.6569 C   0  0  0  0  0  0  0  0  0  0  0  0
  -45.8051  -17.1918  -15.1860 S   0  0  0  0  0  0  0  0  0  0  0  0
  -46.0498  -13.8837  -10.1920 C   0  0  0  0  0  0  0  0  0  0  0  0
  -45.1862  -13.0633   -9.4742 C   0  0  0  0  0  0  0  0  0  0  0  0
  -40.2052  -10.0360   -8.6892 C   0  0  0  0  0  0  0  0  0  0  0  0
  -39.5297   -9.8554   -7.6259 O   0  0  0  0  0  0  0  0  0  0  0  0
  -41.2851   -9.1428   -8.8208 N   0  0  0  0  0  0  0  0  0  0  0  0
  -41.1102   -7.8869   -8.0910 C   0  0  0  0  0  0  0  0  0  0  0  0
  -41.4873   -6.7884   -9.0357 C   0  0  0  0  0  0  0  0  0  0  0  0
  -40.5157   -6.0706   -9.6775 C   0  0  0  0  0  0  0  0  0  0  0  0
  -40.8628   -5.1061  -10.6040 C   0  0  0  0  0  0  0  0  0  0  0  0
  -42.1867   -4.6980  -10.6898 C   0  0  0  0  0  0  0  0  0  0  0  0
  -43.0953   -5.2937   -9.8680 C   0  0  0  0  0  0  0  0  0  0  0  0
  -42.8040   -6.4718   -9.2339 C   0  0  0  0  0  0  0  0  0  0  0  0
  2  1  1  0  0  0  0
  2  3  1  0  0  0  0
  3  4  1  0  0  0  0
  4  5  2  0  0  0  0
  4  6  1  0  0  0  0
  6  7  2  0  0  0  0
  7  8  1  0  0  0  0
  8  9  2  0  0  0  0
  9 10  1  0  0  0  0
 10 11  1  0  0  0  0
 11 12  2  0  0  0  0
 11 13  2  0  0  0  0
 11 14  1  0  0  0  0
 14 15  2  0  0  0  0
 15 16  1  0  0  0  0
 16 17  2  0  0  0  0
 17 18  1  0  0  0  0
  9 19  1  0  0  0  0
 19 20  2  0  0  0  0
  2 21  1  0  0  0  0
 21 22  2  0  0  0  0
 21 23  1  0  0  0  0
 23 24  1  0  0  0  0
 24 25  1  0  0  0  0
 25 26  2  0  0  0  0
 26 27  1  0  0  0  0
 27 28  2  0  0  0  0
 28 29  1  0  0  0  0
 29 30  2  0  0  0  0
 20  6  1  0  0  0  0
 30 25  1  0  0  0  0
 18 14  1  0  0  0  0
M  END
>  <zinc_id>  (304) 
ZINC000089478883

>  <smiles>  (304) 
C[C@H](OC(=O)c1ccc(NS(=O)(=O)c2cccs2)cc1)C(=O)NCc1ccccc1

>  <source_line>  (304) 
304

>  <source_data>  (304) 
ZINC000089478883

>  <source_name>  (304) 


>  <source_label>  (304) 
ZINC000089478883

>  <found_by>  (304) 
ZINC

> <Gold.Version>
5.8.1

> <Gold.Id.Protein>
ID|ID_protein|mol2

> <Gold.Goldscore.Fitness>
69.0745

> <Gold.Goldscore.Internal.Vdw>
0.2230

> <Gold.Goldscore.Internal.Torsion>
-17.2176

> <Gold.Goldscore.External.Vdw>
50.4953

> <Gold.Goldscore.Internal.HBond>
0.0000

> <Gold.Goldscore.External.HBond>
6.0000

> <Gold.Goldscore.Internal.Correction>
-10.6381

> <Gold.Goldscore.Hbonds>
donor molecule, donor type, donor heavy atom, donor atom, acceptor molecule, acceptor atom, score
      P1  H   441  4839       L1    13  1.00

> <Gold.Goldscore.Internal.Vdw.Weighted>
0.2230

> <Gold.Goldscore.Internal.Torsion.Weighted>
-17.2176

> <Gold.Goldscore.External.Vdw.Weighted>
69.4310

> <Gold.Goldscore.Internal.HBond.Weighted>
0.0000

> <Gold.Goldscore.External.HBond.Weighted>
6.0000

> <Gold.Goldscore.Internal.Correction.Weighted>
-10.6381

> <Gold.Protein.RotatedTorsions>
[ 4464  112  111  109 ] final  -36.96 input   60.00 | X-H torsion
[ 4839  441  440  439 ] final  142.70 input   60.00 | X-H torsion
[ 4985  758  757  756 ] final   82.81 input   60.00 | X-H torsion
[ 5271 1023 1022 1020 ] final   20.70 input   60.00 | X-H torsion
[ 6036 1776 1775 1774 ] final  160.17 input   60.00 | X-H torsion
[ 6078 1819 1818 1817 ] final  160.51 input   60.00 | X-H torsion
[ 6166 1916 1915 1913 ] final -130.17 input   60.00 | X-H torsion
[ 4818   65   64   63 ] final   86.40 input   60.00 | X-H torsion
[ 6268 1997 1996 1994 ] final  129.43 input   60.00 | X-H torsion
[ 8592   72   71   70 ] final  -81.94 input   60.00 | X-H torsion
[ 4356  100   99   97 ] final   55.10 input   60.00 | X-H torsion
[ 8510  202  201  200 ] final  -50.57 input   60.00 | X-H torsion
[ 5330 1065 1064 1063 ] final  149.14 input   60.00 | X-H torsion
[ 6640 2347 2346 2344 ] final  -95.71 input   60.00 | X-H torsion
[ 4452  380  379  378 ] final -163.42 input   60.00 | X-H torsion
[ 4500  391  390  389 ] final  153.37 input   60.00 | X-H torsion

> <Gold.Protein.ActiveResidues>
 THR8    THR9    PRO10   ILE11   TYR12   TYR13   VAL14   ASN15   ALA16   HIS19  
 HIS22   SER25   VAL29   MET46   THR47   GLY48   THR49   ASP50   GLU51   HIS52  
 GLY53   GLN54   LYS55   VAL56   ALA57   GLU58   THR71   PHE78   ILE93   THR95  
 THR96   HIS100  GLU101  VAL104  TRP108  TYR126  VAL128  SER129  ASP130  GLU131 
 SER132  LEU210  SER211  ILE212  SER213  ARG214  LYS215  ARG216  SER218  VAL219 
 MET220  ASN221  TRP222  SER223  ILE224  PRO225  VAL226  HIS232  CYS233  ILE234 
 TYR235  VAL236  TRP237  LEU238  ASP239  ALA240  LEU241  PHE242  ASN243  TYR244 
 TYR245  THR246  HIS275  VAL276  VAL277  GLY278  LYS279  ASP280  ILE281  LEU282 
 LYS283  PHE284  HIS285  ALA286  ILE287  TYR288  TRP289  PRO290  PHE292  LEU304 
 TRP309 

> <Gold.Protein.RotatedAtoms>
  -33.0289   -8.3152   -5.5322 H   0  0  0  0  0  0  0  0  0  0  0  0  # atno 4356 bound_to 100 
  -30.2902   -8.2271   -9.0043 H   0  0  0  0  0  0  0  0  0  0  0  0  # atno 4452 bound_to 380 
  -44.7271  -11.5042  -16.4588 H   0  0  0  0  0  0  0  0  0  0  0  0  # atno 4464 bound_to 112 
  -35.0132   -9.9821  -16.9425 H   0  0  0  0  0  0  0  0  0  0  0  0  # atno 4500 bound_to 391 
  -31.6553  -15.2873   -3.5535 H   0  0  0  0  0  0  0  0  0  0  0  0  # atno 4818 bound_to 65  
  -47.7912  -11.5162  -13.9159 H   0  0  0  0  0  0  0  0  0  0  0  0  # atno 4839 bound_to 441 
  -48.9169  -11.2347  -12.7323 H   0  0  0  0  0  0  0  0  0  0  0  0  # atno 4840 bound_to 441 
  -49.2678  -10.8759  -14.3121 H   0  0  0  0  0  0  0  0  0  0  0  0  # atno 4841 bound_to 441 
  -37.4634  -18.1105  -15.7995 H   0  0  0  0  0  0  0  0  0  0  0  0  # atno 4985 bound_to 758 
  -54.2209  -17.7826  -13.9388 H   0  0  0  0  0  0  0  0  0  0  0  0  # atno 5271 bound_to 1023
  -54.7012  -14.6223   -7.1541 H   0  0  0  0  0  0  0  0  0  0  0  0  # atno 5330 bound_to 1065
  -54.6469  -17.5255  -17.4712 H   0  0  0  0  0  0  0  0  0  0  0  0  # atno 6036 bound_to 1776
  -46.4197  -18.0235  -18.8322 H   0  0  0  0  0  0  0  0  0  0  0  0  # atno 6078 bound_to 1819
  -48.9902  -15.2986  -10.9467 H   0  0  0  0  0  0  0  0  0  0  0  0  # atno 6166 bound_to 1916
  -35.7159  -15.6869   -5.4756 H   0  0  0  0  0  0  0  0  0  0  0  0  # atno 6268 bound_to 1997
  -49.3988  -20.5875   -2.8977 H   0  0  0  0  0  0  0  0  0  0  0  0  # atno 6640 bound_to 2347
  -34.9671   -6.9586   -1.1257 H   0  0  0  0  0  0  0  0  0  0  0  0  # atno 8510 bound_to 202 
  -32.8364   -9.3035   -4.9106 H   0  0  0  0  0  0  0  0  0  0  0  0  # atno 8592 bound_to 72  
  -45.7434  -10.2374  -16.3568 LP  0  0  0  0  0  0  0  0  0  0  0  0  # atno 8618 bound_to 112 
  -45.9422  -11.5283  -15.3766 LP  0  0  0  0  0  0  0  0  0  0  0  0  # atno 8619 bound_to 112 
  -37.6264  -17.8137  -17.3912 LP  0  0  0  0  0  0  0  0  0  0  0  0  # atno 8637 bound_to 758 
  -38.7359  -17.2487  -16.3345 LP  0  0  0  0  0  0  0  0  0  0  0  0  # atno 8638 bound_to 758 
  -54.5969  -16.2007  -13.8728 LP  0  0  0  0  0  0  0  0  0  0  0  0  # atno 8642 bound_to 1023
  -54.6535  -16.9976  -15.2970 LP  0  0  0  0  0  0  0  0  0  0  0  0  # atno 8643 bound_to 1023
  -54.7911  -16.2540  -18.4766 LP  0  0  0  0  0  0  0  0  0  0  0  0  # atno 8662 bound_to 1776
  -53.3160  -16.7262  -17.9591 LP  0  0  0  0  0  0  0  0  0  0  0  0  # atno 8663 bound_to 1776
  -45.5609  -17.0370  -19.8003 LP  0  0  0  0  0  0  0  0  0  0  0  0  # atno 8672 bound_to 1819
  -44.9047  -17.6003  -18.4152 LP  0  0  0  0  0  0  0  0  0  0  0  0  # atno 8673 bound_to 1819
  -50.5264  -15.8095  -11.1106 LP  0  0  0  0  0  0  0  0  0  0  0  0  # atno 8684 bound_to 1916
  -49.7451  -15.1421  -12.3797 LP  0  0  0  0  0  0  0  0  0  0  0  0  # atno 8685 bound_to 1916
  -30.4603  -15.7936   -2.5718 LP  0  0  0  0  0  0  0  0  0  0  0  0  # atno 8712 bound_to 65  
  -31.1573  -16.8352   -3.6187 LP  0  0  0  0  0  0  0  0  0  0  0  0  # atno 8713 bound_to 65  
  -34.3354  -14.9450   -5.0376 LP  0  0  0  0  0  0  0  0  0  0  0  0  # atno 8724 bound_to 1997
  -35.1603  -15.8466   -3.9544 LP  0  0  0  0  0  0  0  0  0  0  0  0  # atno 8725 bound_to 1997
  -31.5291   -8.4198   -4.5131 LP  0  0  0  0  0  0  0  0  0  0  0  0  # atno 8747 bound_to 72  
  -32.1500   -9.4896   -3.4470 LP  0  0  0  0  0  0  0  0  0  0  0  0  # atno 8748 bound_to 72  
  -32.9325   -6.6913   -5.5757 LP  0  0  0  0  0  0  0  0  0  0  0  0  # atno 8749 bound_to 100 
  -31.9351   -7.5964   -6.4992 LP  0  0  0  0  0  0  0  0  0  0  0  0  # atno 8750 bound_to 100 
  -35.6151   -7.5126   -2.5118 LP  0  0  0  0  0  0  0  0  0  0  0  0  # atno 8754 bound_to 202 
  -35.2969   -5.9207   -2.3349 LP  0  0  0  0  0  0  0  0  0  0  0  0  # atno 8755 bound_to 202 
  -54.1109  -15.1472   -8.5768 LP  0  0  0  0  0  0  0  0  0  0  0  0  # atno 8775 bound_to 1065
  -53.9408  -16.0588   -7.2327 LP  0  0  0  0  0  0  0  0  0  0  0  0  # atno 8776 bound_to 1065
  -48.8844  -19.8094   -1.5643 LP  0  0  0  0  0  0  0  0  0  0  0  0  # atno 8779 bound_to 2347
  -49.4090  -21.3524   -1.4615 LP  0  0  0  0  0  0  0  0  0  0  0  0  # atno 8780 bound_to 2347
  -30.8992   -9.2934   -7.9365 LP  0  0  0  0  0  0  0  0  0  0  0  0  # atno 8787 bound_to 380 
  -31.1151   -9.5239   -9.5387 LP  0  0  0  0  0  0  0  0  0  0  0  0  # atno 8788 bound_to 380 

$$$$
