unknown|11k_best|sdf|8324|dock3
  -GOLD-   3 721 1413D 1   1.00000     0.00000

 29 31  0  0  0  0  0  0  0  0  1 V2000
  -42.7737  -18.6143  -17.4900 C   0  0  0  0  0  0  0  0  0  0  0  0
  -43.7656  -18.8721  -16.4993 O   0  0  0  0  0  0  0  0  0  0  0  0
  -44.8645  -18.0141  -16.3848 C   0  0  0  0  0  0  0  0  0  0  0  0
  -44.8029  -16.7123  -16.8686 C   0  0  0  0  0  0  0  0  0  0  0  0
  -45.3405  -15.6529  -16.1479 C   0  0  0  0  0  0  0  0  0  0  0  0
  -45.9900  -15.8768  -14.9401 C   0  0  0  0  0  0  0  0  0  0  0  0
  -45.9113  -14.9058  -13.8558 C   0  0  0  0  0  0  0  0  0  0  0  0
  -46.9127  -14.3826  -13.1049 N   0  0  0  0  0  0  0  0  0  0  0  0
  -46.6307  -13.1824  -12.6794 N   0  0  0  0  0  0  0  0  0  0  0  0
  -45.4406  -13.1318  -12.0294 C   0  0  0  0  0  0  0  0  0  0  0  0
  -44.9960  -12.0031  -11.2647 N   0  0  0  0  0  0  0  0  0  0  0  0
  -43.6669  -12.0198  -10.7449 C   0  0  0  0  0  0  0  0  0  0  0  0
  -43.0974  -13.1504  -10.7350 O   0  0  0  0  0  0  0  0  0  0  0  0
  -43.0951  -10.8802  -10.0166 C   0  0  0  0  0  0  0  0  0  0  0  0
  -43.8603   -9.7323   -9.8638 C   0  0  0  0  0  0  0  0  0  0  0  0
  -43.3940   -8.7295   -9.0352 C   0  0  0  0  0  0  0  0  0  0  0  0
  -42.4578   -9.0355   -8.0671 C   0  0  0  0  0  0  0  0  0  0  0  0
  -41.6719  -10.1678   -8.2226 C   0  0  0  0  0  0  0  0  0  0  0  0
  -40.4418  -10.3172   -7.5433 N   0  0  0  0  0  0  0  0  0  0  0  0
  -39.6711  -11.5349   -7.7568 C   0  0  0  0  0  0  0  0  0  0  0  0
  -39.5612   -8.9249   -7.0134 S   0  0  0  0  0  0  0  0  0  0  0  0
  -40.1880   -8.3886   -5.4355 C   0  0  0  0  0  0  0  0  0  0  0  0
  -38.0990   -9.2455   -6.8385 O   0  0  0  0  0  0  0  0  0  0  0  0
  -39.6619   -7.7938   -7.9970 O   0  0  0  0  0  0  0  0  0  0  0  0
  -41.9698  -11.0391   -9.2539 C   0  0  0  0  0  0  0  0  0  0  0  0
  -41.1634  -12.2591   -9.4461 C   0  0  0  0  0  0  0  0  0  0  0  0
  -44.5668  -14.2237  -13.0309 S   0  0  0  0  0  0  0  0  0  0  0  0
  -46.3523  -17.1668  -14.6731 C   0  0  0  0  0  0  0  0  0  0  0  0
  -45.8065  -18.2282  -15.3857 C   0  0  0  0  0  0  0  0  0  0  0  0
  1  2  1  0  0  0  0
  2  3  1  0  0  0  0
  3  4  2  0  0  0  0
  4  5  1  0  0  0  0
  5  6  2  0  0  0  0
  6  7  1  0  0  0  0
  7  8  2  0  0  0  0
  8  9  1  0  0  0  0
  9 10  2  0  0  0  0
 10 11  1  0  0  0  0
 11 12  1  0  0  0  0
 12 13  2  0  0  0  0
 12 14  1  0  0  0  0
 14 15  2  0  0  0  0
 15 16  1  0  0  0  0
 16 17  2  0  0  0  0
 17 18  1  0  0  0  0
 18 19  1  0  0  0  0
 19 20  1  0  0  0  0
 19 21  1  0  0  0  0
 21 22  1  0  0  0  0
 21 23  2  0  0  0  0
 21 24  2  0  0  0  0
 18 25  2  0  0  0  0
 25 26  1  0  0  0  0
 10 27  1  0  0  0  0
  6 28  1  0  0  0  0
 28 29  2  0  0  0  0
 29  3  1  0  0  0  0
 27  7  1  0  0  0  0
 25 14  1  0  0  0  0
M  END
>  <zinc_id>  (324) 
ZINC000225340384

>  <smiles>  (324) 
COc1ccc(-c2nnc(NC(=O)c3cccc(N(C)S(C)(=O)=O)c3C)s2)cc1

>  <source_line>  (324) 
324

>  <source_data>  (324) 
ZINC000225340384

>  <source_name>  (324) 


>  <source_label>  (324) 
ZINC000225340384

>  <found_by>  (324) 
ZINC

> <Gold.Version>
5.8.1

> <Gold.Id.Protein>
ID|ID_protein|mol2

> <Gold.Goldscore.Fitness>
62.9643

> <Gold.Goldscore.Internal.Vdw>
-5.6765

> <Gold.Goldscore.Internal.Torsion>
-16.7315

> <Gold.Goldscore.External.Vdw>
44.2203

> <Gold.Goldscore.Internal.HBond>
0.0000

> <Gold.Goldscore.External.HBond>
7.1366

> <Gold.Goldscore.Internal.Correction>
-17.4327

> <Gold.Goldscore.Hbonds>
donor molecule, donor type, donor heavy atom, donor atom, acceptor molecule, acceptor atom, score
      P1  H   441  4839       L1     9  1.00
      P1  H  1822  6079       L1     2  0.03
      P1  H  1916  6166       L1     8  0.23
      P1  H   103  4530       L1    24  0.31

> <Gold.Goldscore.Internal.Vdw.Weighted>
-5.6765

> <Gold.Goldscore.Internal.Torsion.Weighted>
-16.7315

> <Gold.Goldscore.External.Vdw.Weighted>
60.8029

> <Gold.Goldscore.Internal.HBond.Weighted>
0.0000

> <Gold.Goldscore.External.HBond.Weighted>
7.1366

> <Gold.Goldscore.Internal.Correction.Weighted>
-17.4327

> <Gold.Protein.RotatedTorsions>
[ 4464  112  111  109 ] final   63.13 input   60.00 | X-H torsion
[ 4839  441  440  439 ] final -173.08 input   60.00 | X-H torsion
[ 4985  758  757  756 ] final -139.33 input   60.00 | X-H torsion
[ 5271 1023 1022 1020 ] final -121.90 input   60.00 | X-H torsion
[ 6036 1776 1775 1774 ] final -133.84 input   60.00 | X-H torsion
[ 6078 1819 1818 1817 ] final  155.33 input   60.00 | X-H torsion
[ 6166 1916 1915 1913 ] final  -69.32 input   60.00 | X-H torsion
[ 4818   65   64   63 ] final   60.02 input   60.00 | X-H torsion
[ 6268 1997 1996 1994 ] final  -82.14 input   60.00 | X-H torsion
[ 8592   72   71   70 ] final   66.90 input   60.00 | X-H torsion
[ 4356  100   99   97 ] final -149.75 input   60.00 | X-H torsion
[ 8510  202  201  200 ] final -106.20 input   60.00 | X-H torsion
[ 5330 1065 1064 1063 ] final  -55.56 input   60.00 | X-H torsion
[ 6640 2347 2346 2344 ] final  118.66 input   60.00 | X-H torsion
[ 4452  380  379  378 ] final   18.80 input   60.00 | X-H torsion
[ 4500  391  390  389 ] final  137.92 input   60.00 | X-H torsion

> <Gold.Protein.ActiveResidues>
 THR8    THR9    PRO10   ILE11   TYR12   TYR13   VAL14   ASN15   ALA16   HIS19  
 HIS22   SER25   VAL29   MET46   THR47   GLY48   THR49   ASP50   GLU51   HIS52  
 GLY53   GLN54   LYS55   VAL56   ALA57   GLU58   THR71   PHE78   ILE93   THR95  
 THR96   HIS100  GLU101  VAL104  TRP108  TYR126  VAL128  SER129  ASP130  GLU131 
 SER132  LEU210  SER211  ILE212  SER213  ARG214  LYS215  ARG216  SER218  VAL219 
 MET220  ASN221  TRP222  SER223  ILE224  PRO225  VAL226  HIS232  CYS233  ILE234 
 TYR235  VAL236  TRP237  LEU238  ASP239  ALA240  LEU241  PHE242  ASN243  TYR244 
 TYR245  THR246  HIS275  VAL276  VAL277  GLY278  LYS279  ASP280  ILE281  LEU282 
 LYS283  PHE284  HIS285  ALA286  ILE287  TYR288  TRP289  PRO290  PHE292  LEU304 
 TRP309 

> <Gold.Protein.RotatedAtoms>
  -32.0357   -7.0472   -6.3979 H   0  0  0  0  0  0  0  0  0  0  0  0  # atno 4356 bound_to 100 
  -31.2361   -9.7948   -8.6141 H   0  0  0  0  0  0  0  0  0  0  0  0  # atno 4452 bound_to 380 
  -45.7102  -11.7464  -15.4416 H   0  0  0  0  0  0  0  0  0  0  0  0  # atno 4464 bound_to 112 
  -35.1795  -10.1693  -16.9171 H   0  0  0  0  0  0  0  0  0  0  0  0  # atno 4500 bound_to 391 
  -31.4190  -15.0931   -3.2552 H   0  0  0  0  0  0  0  0  0  0  0  0  # atno 4818 bound_to 65  
  -47.8956  -11.5737  -13.2056 H   0  0  0  0  0  0  0  0  0  0  0  0  # atno 4839 bound_to 441 
  -49.4382  -10.9696  -13.1527 H   0  0  0  0  0  0  0  0  0  0  0  0  # atno 4840 bound_to 441 
  -48.6420  -11.0835  -14.6020 H   0  0  0  0  0  0  0  0  0  0  0  0  # atno 4841 bound_to 441 
  -38.7201  -17.2199  -16.6245 H   0  0  0  0  0  0  0  0  0  0  0  0  # atno 4985 bound_to 758 
  -54.6864  -16.0934  -14.2136 H   0  0  0  0  0  0  0  0  0  0  0  0  # atno 5271 bound_to 1023
  -53.8057  -16.0869   -7.7854 H   0  0  0  0  0  0  0  0  0  0  0  0  # atno 5330 bound_to 1065
  -53.6403  -17.3649  -17.4954 H   0  0  0  0  0  0  0  0  0  0  0  0  # atno 6036 bound_to 1776
  -46.4505  -17.9924  -18.9046 H   0  0  0  0  0  0  0  0  0  0  0  0  # atno 6078 bound_to 1819
  -48.9895  -15.0256  -11.8548 H   0  0  0  0  0  0  0  0  0  0  0  0  # atno 6166 bound_to 1916
  -34.7696  -15.6013   -3.9447 H   0  0  0  0  0  0  0  0  0  0  0  0  # atno 6268 bound_to 1997
  -48.9203  -20.0810   -1.2502 H   0  0  0  0  0  0  0  0  0  0  0  0  # atno 6640 bound_to 2347
  -35.2586   -7.6419   -1.5855 H   0  0  0  0  0  0  0  0  0  0  0  0  # atno 8510 bound_to 202 
  -31.7885   -9.1924   -3.4469 H   0  0  0  0  0  0  0  0  0  0  0  0  # atno 8592 bound_to 72  
  -44.7288  -11.2293  -16.6322 LP  0  0  0  0  0  0  0  0  0  0  0  0  # atno 8618 bound_to 112 
  -45.9667  -10.2924  -16.1257 LP  0  0  0  0  0  0  0  0  0  0  0  0  # atno 8619 bound_to 112 
  -37.6809  -17.9963  -15.6419 LP  0  0  0  0  0  0  0  0  0  0  0  0  # atno 8637 bound_to 758 
  -37.4158  -17.9629  -17.2529 LP  0  0  0  0  0  0  0  0  0  0  0  0  # atno 8638 bound_to 758 
  -54.5566  -17.3496  -15.2398 LP  0  0  0  0  0  0  0  0  0  0  0  0  # atno 8642 bound_to 1023
  -54.2251  -17.5499  -13.6534 LP  0  0  0  0  0  0  0  0  0  0  0  0  # atno 8643 bound_to 1023
  -55.1750  -17.0227  -17.9144 LP  0  0  0  0  0  0  0  0  0  0  0  0  # atno 8662 bound_to 1776
  -53.9458  -16.1192  -18.4969 LP  0  0  0  0  0  0  0  0  0  0  0  0  # atno 8663 bound_to 1776
  -45.4819  -17.0170  -19.7755 LP  0  0  0  0  0  0  0  0  0  0  0  0  # atno 8672 bound_to 1819
  -44.9528  -17.6517  -18.3670 LP  0  0  0  0  0  0  0  0  0  0  0  0  # atno 8673 bound_to 1819
  -49.7464  -15.6850  -10.5740 LP  0  0  0  0  0  0  0  0  0  0  0  0  # atno 8684 bound_to 1916
  -50.5258  -15.5416  -12.0018 LP  0  0  0  0  0  0  0  0  0  0  0  0  # atno 8685 bound_to 1916
  -30.3970  -16.2102   -2.6588 LP  0  0  0  0  0  0  0  0  0  0  0  0  # atno 8712 bound_to 65  
  -31.4585  -16.6142   -3.8321 LP  0  0  0  0  0  0  0  0  0  0  0  0  # atno 8713 bound_to 65  
  -35.8701  -15.9108   -5.1027 LP  0  0  0  0  0  0  0  0  0  0  0  0  # atno 8724 bound_to 1997
  -34.5786  -14.9670   -5.4310 LP  0  0  0  0  0  0  0  0  0  0  0  0  # atno 8725 bound_to 1997
  -32.9325   -9.5725   -4.5399 LP  0  0  0  0  0  0  0  0  0  0  0  0  # atno 8747 bound_to 72  
  -31.8019   -8.4487   -4.8942 LP  0  0  0  0  0  0  0  0  0  0  0  0  # atno 8748 bound_to 72  
  -32.6261   -8.4785   -5.8970 LP  0  0  0  0  0  0  0  0  0  0  0  0  # atno 8749 bound_to 100 
  -33.2418   -7.0862   -5.3062 LP  0  0  0  0  0  0  0  0  0  0  0  0  # atno 8750 bound_to 100 
  -35.6320   -6.7063   -2.8635 LP  0  0  0  0  0  0  0  0  0  0  0  0  # atno 8754 bound_to 202 
  -34.9863   -6.0389   -1.5202 LP  0  0  0  0  0  0  0  0  0  0  0  0  # atno 8755 bound_to 202 
  -54.5627  -15.0416   -6.7942 LP  0  0  0  0  0  0  0  0  0  0  0  0  # atno 8775 bound_to 1065
  -54.3908  -14.6894   -8.3795 LP  0  0  0  0  0  0  0  0  0  0  0  0  # atno 8776 bound_to 1065
  -49.5209  -21.4709   -1.8467 LP  0  0  0  0  0  0  0  0  0  0  0  0  # atno 8779 bound_to 2347
  -49.2544  -20.2011   -2.8383 LP  0  0  0  0  0  0  0  0  0  0  0  0  # atno 8780 bound_to 2347
  -30.6549   -8.7611   -9.7285 LP  0  0  0  0  0  0  0  0  0  0  0  0  # atno 8787 bound_to 380 
  -30.4069   -8.4774   -8.1396 LP  0  0  0  0  0  0  0  0  0  0  0  0  # atno 8788 bound_to 380 

$$$$
