unknown|11k_best|sdf|8320|dock8
  -GOLD-   3 721 1373D 1   1.00000     0.00000

 27 29  0  0  0  0  0  0  0  0  1 V2000
  -37.6371   -5.5304   -3.7840 C   0  0  0  0  0  0  0  0  0  0  0  0
  -37.6251   -6.7992   -4.6027 C   0  0  0  0  0  0  0  0  0  0  0  0
  -38.7255   -7.6980   -4.1131 C   0  0  0  0  0  0  0  0  0  0  0  0
  -38.7531   -9.0023   -4.8455 C   0  0  0  0  0  0  0  0  0  0  0  0
  -39.0850   -9.0802   -6.1922 C   0  0  0  0  0  0  0  0  0  0  0  0
  -39.4943  -10.2693   -6.7815 C   0  0  0  0  0  0  0  0  0  0  0  0
  -40.5843  -10.2518   -7.7659 C   0  0  0  0  0  0  0  0  0  0  0  0
  -41.0406   -9.2022   -8.4925 N   0  0  0  0  0  0  0  0  0  0  0  0
  -42.3213   -9.3501   -8.8324 C   0  0  0  0  0  0  0  0  0  0  0  0
  -43.2030   -8.1826   -9.1573 C   0  0  0  0  0  0  0  0  0  0  0  0
  -42.5518  -10.5899   -9.4223 C   0  0  0  0  0  0  0  0  0  0  0  0
  -43.7071  -10.9910  -10.2366 C   0  0  0  0  0  0  0  0  0  0  0  0
  -44.8288  -10.9904   -9.6542 O   0  0  0  0  0  0  0  0  0  0  0  0
  -43.5745  -11.9005  -11.3358 N   0  0  0  0  0  0  0  0  0  0  0  0
  -44.7131  -12.5793  -11.8801 C   0  0  0  0  0  0  0  0  0  0  0  0
  -45.9936  -12.5532  -11.4315 N   0  0  0  0  0  0  0  0  0  0  0  0
  -46.8426  -12.9065  -12.3621 N   0  0  0  0  0  0  0  0  0  0  0  0
  -46.5322  -14.1144  -12.8972 C   0  0  0  0  0  0  0  0  0  0  0  0
  -47.4247  -15.0279  -13.6794 C   0  0  0  0  0  0  0  0  0  0  0  0
  -46.8922  -15.0418  -15.0940 C   0  0  0  0  0  0  0  0  0  0  0  0
  -47.9745  -15.3508  -16.0903 C   0  0  0  0  0  0  0  0  0  0  0  0
  -45.7597  -16.0474  -15.1272 C   0  0  0  0  0  0  0  0  0  0  0  0
  -44.8177  -13.9733  -12.8817 S   0  0  0  0  0  0  0  0  0  0  0  0
  -41.3995  -11.5353   -8.5651 S   0  0  0  0  0  0  0  0  0  0  0  0
  -39.2789  -11.4194   -6.0326 C   0  0  0  0  0  0  0  0  0  0  0  0
  -38.9073  -11.3489   -4.6951 C   0  0  0  0  0  0  0  0  0  0  0  0
  -38.6224  -10.1451   -4.1409 N   0  0  0  0  0  0  0  0  0  0  0  0
  1  2  1  0  0  0  0
  2  3  1  0  0  0  0
  3  4  1  0  0  0  0
  4  5  2  0  0  0  0
  5  6  1  0  0  0  0
  6  7  1  0  0  0  0
  7  8  2  0  0  0  0
  8  9  1  0  0  0  0
  9 10  1  0  0  0  0
  9 11  2  0  0  0  0
 11 12  1  0  0  0  0
 12 13  2  0  0  0  0
 12 14  1  0  0  0  0
 14 15  1  0  0  0  0
 15 16  2  0  0  0  0
 16 17  1  0  0  0  0
 17 18  2  0  0  0  0
 18 19  1  0  0  0  0
 19 20  1  0  0  0  0
 20 21  1  0  0  0  0
 20 22  1  0  0  0  0
 18 23  1  0  0  0  0
 11 24  1  0  0  0  0
  6 25  2  0  0  0  0
 25 26  1  0  0  0  0
 26 27  2  0  0  0  0
 27  4  1  0  0  0  0
 24  7  1  0  0  0  0
 23 15  1  0  0  0  0
M  END
>  <zinc_id>  (320) 
ZINC000071279561

>  <smiles>  (320) 
CCCc1cc(-c2nc(C)c(C(=O)Nc3nnc(CC(C)C)s3)s2)ccn1

>  <source_line>  (320) 
320

>  <source_data>  (320) 
ZINC000071279561

>  <source_name>  (320) 


>  <source_label>  (320) 
ZINC000071279561

>  <found_by>  (320) 
ZINC

> <Gold.Version>
5.8.1

> <Gold.Id.Protein>
ID|ID_protein|mol2

> <Gold.Goldscore.Fitness>
55.9770

> <Gold.Goldscore.Internal.Vdw>
2.5137

> <Gold.Goldscore.Internal.Torsion>
-7.4605

> <Gold.Goldscore.External.Vdw>
38.7717

> <Gold.Goldscore.Internal.HBond>
0.0000

> <Gold.Goldscore.External.HBond>
6.2297

> <Gold.Goldscore.Internal.Correction>
-1.3829

> <Gold.Goldscore.Hbonds>
donor molecule, donor type, donor heavy atom, donor atom, acceptor molecule, acceptor atom, score
      P1  H   441  4841       L1    17  1.00
      P1  H  1916  6166       L1    17  0.04
      P1  H  2258  6546       L1    27  0.09

> <Gold.Goldscore.Internal.Vdw.Weighted>
2.5137

> <Gold.Goldscore.Internal.Torsion.Weighted>
-7.4605

> <Gold.Goldscore.External.Vdw.Weighted>
53.3111

> <Gold.Goldscore.Internal.HBond.Weighted>
0.0000

> <Gold.Goldscore.External.HBond.Weighted>
6.2297

> <Gold.Goldscore.Internal.Correction.Weighted>
-1.3829

> <Gold.Protein.RotatedTorsions>
[ 4464  112  111  109 ] final -102.54 input   60.00 | X-H torsion
[ 4839  441  440  439 ] final  -60.48 input   60.00 | X-H torsion
[ 4985  758  757  756 ] final  -30.95 input   60.00 | X-H torsion
[ 5271 1023 1022 1020 ] final  -25.23 input   60.00 | X-H torsion
[ 6036 1776 1775 1774 ] final  -74.55 input   60.00 | X-H torsion
[ 6078 1819 1818 1817 ] final   81.44 input   60.00 | X-H torsion
[ 6166 1916 1915 1913 ] final  -83.49 input   60.00 | X-H torsion
[ 4818   65   64   63 ] final  -63.66 input   60.00 | X-H torsion
[ 6268 1997 1996 1994 ] final    4.96 input   60.00 | X-H torsion
[ 8592   72   71   70 ] final -159.70 input   60.00 | X-H torsion
[ 4356  100   99   97 ] final -173.80 input   60.00 | X-H torsion
[ 8510  202  201  200 ] final -154.54 input   60.00 | X-H torsion
[ 5330 1065 1064 1063 ] final -100.92 input   60.00 | X-H torsion
[ 6640 2347 2346 2344 ] final  111.33 input   60.00 | X-H torsion
[ 4452  380  379  378 ] final  175.05 input   60.00 | X-H torsion
[ 4500  391  390  389 ] final  101.93 input   60.00 | X-H torsion

> <Gold.Protein.ActiveResidues>
 THR8    THR9    PRO10   ILE11   TYR12   TYR13   VAL14   ASN15   ALA16   HIS19  
 HIS22   SER25   VAL29   MET46   THR47   GLY48   THR49   ASP50   GLU51   HIS52  
 GLY53   GLN54   LYS55   VAL56   ALA57   GLU58   THR71   PHE78   ILE93   THR95  
 THR96   HIS100  GLU101  VAL104  TRP108  TYR126  VAL128  SER129  ASP130  GLU131 
 SER132  LEU210  SER211  ILE212  SER213  ARG214  LYS215  ARG216  SER218  VAL219 
 MET220  ASN221  TRP222  SER223  ILE224  PRO225  VAL226  HIS232  CYS233  ILE234 
 TYR235  VAL236  TRP237  LEU238  ASP239  ALA240  LEU241  PHE242  ASN243  TYR244 
 TYR245  THR246  HIS275  VAL276  VAL277  GLY278  LYS279  ASP280  ILE281  LEU282 
 LYS283  PHE284  HIS285  ALA286  ILE287  TYR288  TRP289  PRO290  PHE292  LEU304 
 TRP309 

> <Gold.Protein.RotatedAtoms>
  -31.9438   -7.4149   -6.4901 H   0  0  0  0  0  0  0  0  0  0  0  0  # atno 4356 bound_to 100 
  -30.2779   -8.2334   -8.6549 H   0  0  0  0  0  0  0  0  0  0  0  0  # atno 4452 bound_to 380 
  -45.0580  -10.5876  -16.7388 H   0  0  0  0  0  0  0  0  0  0  0  0  # atno 4464 bound_to 112 
  -35.3607  -10.6822  -16.7205 H   0  0  0  0  0  0  0  0  0  0  0  0  # atno 4500 bound_to 391 
  -30.4030  -16.2637   -2.6871 H   0  0  0  0  0  0  0  0  0  0  0  0  # atno 4818 bound_to 65  
  -49.3763  -11.0081  -13.0531 H   0  0  0  0  0  0  0  0  0  0  0  0  # atno 4839 bound_to 441 
  -48.7568  -11.0396  -14.5902 H   0  0  0  0  0  0  0  0  0  0  0  0  # atno 4840 bound_to 441 
  -47.8429  -11.5791  -13.3170 H   0  0  0  0  0  0  0  0  0  0  0  0  # atno 4841 bound_to 441 
  -37.5497  -17.8647  -17.3458 H   0  0  0  0  0  0  0  0  0  0  0  0  # atno 4985 bound_to 758 
  -54.2799  -17.2147  -13.4829 H   0  0  0  0  0  0  0  0  0  0  0  0  # atno 5271 bound_to 1023
  -54.0090  -15.9892   -7.0996 H   0  0  0  0  0  0  0  0  0  0  0  0  # atno 5330 bound_to 1065
  -53.3337  -16.6615  -18.0144 H   0  0  0  0  0  0  0  0  0  0  0  0  # atno 6036 bound_to 1776
  -46.1490  -17.3275  -19.7610 H   0  0  0  0  0  0  0  0  0  0  0  0  # atno 6078 bound_to 1819
  -48.9033  -15.0577  -11.6430 H   0  0  0  0  0  0  0  0  0  0  0  0  # atno 6166 bound_to 1916
  -34.3165  -14.9595   -4.9679 H   0  0  0  0  0  0  0  0  0  0  0  0  # atno 6268 bound_to 1997
  -48.9424  -20.1780   -1.1836 H   0  0  0  0  0  0  0  0  0  0  0  0  # atno 6640 bound_to 2347
  -35.5460   -7.6447   -2.2963 H   0  0  0  0  0  0  0  0  0  0  0  0  # atno 8510 bound_to 202 
  -31.9653   -8.5222   -5.0207 H   0  0  0  0  0  0  0  0  0  0  0  0  # atno 8592 bound_to 72  
  -46.2235  -10.7488  -15.6148 LP  0  0  0  0  0  0  0  0  0  0  0  0  # atno 8618 bound_to 112 
  -45.1288  -11.9400  -15.8366 LP  0  0  0  0  0  0  0  0  0  0  0  0  # atno 8619 bound_to 112 
  -38.7415  -17.2326  -16.4358 LP  0  0  0  0  0  0  0  0  0  0  0  0  # atno 8637 bound_to 758 
  -37.5338  -18.0773  -15.7326 LP  0  0  0  0  0  0  0  0  0  0  0  0  # atno 8638 bound_to 758 
  -54.7453  -16.1150  -14.5884 LP  0  0  0  0  0  0  0  0  0  0  0  0  # atno 8642 bound_to 1023
  -54.4457  -17.6553  -15.0406 LP  0  0  0  0  0  0  0  0  0  0  0  0  # atno 8643 bound_to 1023
  -54.5698  -17.5510  -17.4405 LP  0  0  0  0  0  0  0  0  0  0  0  0  # atno 8662 bound_to 1776
  -54.8598  -16.2992  -18.4482 LP  0  0  0  0  0  0  0  0  0  0  0  0  # atno 8663 bound_to 1776
  -44.7550  -17.2153  -18.9290 LP  0  0  0  0  0  0  0  0  0  0  0  0  # atno 8672 bound_to 1819
  -45.9834  -18.1229  -18.3511 LP  0  0  0  0  0  0  0  0  0  0  0  0  # atno 8673 bound_to 1819
  -49.9643  -15.7504  -10.6219 LP  0  0  0  0  0  0  0  0  0  0  0  0  # atno 8684 bound_to 1916
  -50.3947  -15.4439  -12.1671 LP  0  0  0  0  0  0  0  0  0  0  0  0  # atno 8685 bound_to 1916
  -31.4959  -16.5711   -3.8529 LP  0  0  0  0  0  0  0  0  0  0  0  0  # atno 8712 bound_to 65  
  -31.3828  -15.0743   -3.2100 LP  0  0  0  0  0  0  0  0  0  0  0  0  # atno 8713 bound_to 65  
  -35.2224  -15.8789   -3.9770 LP  0  0  0  0  0  0  0  0  0  0  0  0  # atno 8724 bound_to 1997
  -35.6825  -15.6452   -5.5263 LP  0  0  0  0  0  0  0  0  0  0  0  0  # atno 8725 bound_to 1997
  -31.6465   -9.0380   -3.5106 LP  0  0  0  0  0  0  0  0  0  0  0  0  # atno 8747 bound_to 72  
  -32.9099   -9.6582   -4.3386 LP  0  0  0  0  0  0  0  0  0  0  0  0  # atno 8748 bound_to 72  
  -32.9118   -8.4066   -5.6371 LP  0  0  0  0  0  0  0  0  0  0  0  0  # atno 8749 bound_to 100 
  -33.0486   -6.7877   -5.4732 LP  0  0  0  0  0  0  0  0  0  0  0  0  # atno 8750 bound_to 100 
  -35.4000   -6.0430   -2.5435 LP  0  0  0  0  0  0  0  0  0  0  0  0  # atno 8754 bound_to 202 
  -34.9289   -6.6994   -1.1244 LP  0  0  0  0  0  0  0  0  0  0  0  0  # atno 8755 bound_to 202 
  -54.7126  -14.5348   -7.2935 LP  0  0  0  0  0  0  0  0  0  0  0  0  # atno 8775 bound_to 1065
  -54.0362  -15.2946   -8.5709 LP  0  0  0  0  0  0  0  0  0  0  0  0  # atno 8776 bound_to 1065
  -49.5431  -21.4728   -1.9652 LP  0  0  0  0  0  0  0  0  0  0  0  0  # atno 8779 bound_to 2347
  -49.2100  -20.1015   -2.7869 LP  0  0  0  0  0  0  0  0  0  0  0  0  # atno 8780 bound_to 2347
  -31.0651   -9.5500   -8.1116 LP  0  0  0  0  0  0  0  0  0  0  0  0  # atno 8787 bound_to 380 
  -30.9616   -9.2610   -9.7155 LP  0  0  0  0  0  0  0  0  0  0  0  0  # atno 8788 bound_to 380 

$$$$
