unknown|11k_best|sdf|8287|dock10
  -GOLD-   3 721 0533D 1   1.00000     0.00000

 31 34  0  0  0  0  0  0  0  0  1 V2000
  -51.1593  -17.7817  -17.8886 C   0  0  0  0  0  0  0  0  0  0  0  0
  -51.7662  -17.2478  -17.1025 N   0  0  0  0  0  0  0  0  0  0  0  0
  -51.3290  -16.1589  -16.2920 C   0  0  0  0  0  0  0  0  0  0  0  0
  -52.0464  -15.9150  -15.2792 O   0  0  0  0  0  0  0  0  0  0  0  0
  -50.0158  -15.5425  -16.4091 C   0  0  0  0  0  0  0  0  0  0  0  0
  -48.8896  -16.2975  -16.6694 C   0  0  0  0  0  0  0  0  0  0  0  0
  -47.6510  -15.8977  -16.2078 C   0  0  0  0  0  0  0  0  0  0  0  0
  -47.5392  -14.6938  -15.5609 C   0  0  0  0  0  0  0  0  0  0  0  0
  -46.4962  -14.4637  -14.5586 C   0  0  0  0  0  0  0  0  0  0  0  0
  -45.2206  -14.9819  -14.7296 C   0  0  0  0  0  0  0  0  0  0  0  0
  -44.2535  -14.7839  -13.7647 C   0  0  0  0  0  0  0  0  0  0  0  0
  -42.8731  -15.3289  -13.9019 C   0  0  0  0  0  0  0  0  0  0  0  0
  -44.5273  -14.0815  -12.6384 N   0  0  0  0  0  0  0  0  0  0  0  0
  -45.7517  -13.6282  -12.4968 C   0  0  0  0  0  0  0  0  0  0  0  0
  -46.1459  -12.9143  -11.0960 C   0  0  2  0  0  0  0  0  0  0  0  0
  -46.2485  -11.4105  -11.7861 C   0  0  0  0  0  0  0  0  0  0  0  0
  -45.9496  -10.4622  -10.6336 C   0  0  0  0  0  0  0  0  0  0  0  0
  -45.8780  -11.2265   -9.3161 C   0  0  0  0  0  0  0  0  0  0  0  0
  -44.6914  -12.0459   -9.3646 N   0  0  0  0  0  0  0  0  0  0  0  0
  -44.6887  -13.1045   -8.3837 C   0  0  0  0  0  0  0  0  0  0  0  0
  -43.3353  -13.0124   -7.6864 C   0  0  0  0  0  0  0  0  0  0  0  0
  -42.7764  -14.3856   -7.5092 C   0  0  0  0  0  0  0  0  0  0  0  0
  -41.5820  -14.7367   -8.1133 C   0  0  0  0  0  0  0  0  0  0  0  0
  -40.7926  -15.7829   -7.6799 C   0  0  0  0  0  0  0  0  0  0  0  0
  -41.2986  -16.5761   -6.6745 C   0  0  0  0  0  0  0  0  0  0  0  0
  -42.3287  -16.0821   -5.8964 C   0  0  0  0  0  0  0  0  0  0  0  0
  -43.1979  -15.1338   -6.4193 C   0  0  0  0  0  0  0  0  0  0  0  0
  -44.5633  -12.6727  -10.6655 C   0  0  0  0  0  0  0  0  0  0  0  0
  -46.8022  -13.8320  -13.3563 C   0  0  0  0  0  0  0  0  0  0  0  0
  -48.6275  -13.8484  -15.5414 C   0  0  0  0  0  0  0  0  0  0  0  0
  -49.8284  -14.2879  -15.9789 N   0  0  0  0  0  0  0  0  0  0  0  0
  1  2  1  0  0  0  0
  2  3  1  0  0  0  0
  3  4  2  0  0  0  0
  3  5  1  0  0  0  0
  5  6  2  0  0  0  0
  6  7  1  0  0  0  0
  7  8  2  0  0  0  0
  8  9  1  0  0  0  0
  9 10  2  0  0  0  0
 10 11  1  0  0  0  0
 11 12  1  0  0  0  0
 11 13  2  0  0  0  0
 13 14  1  0  0  0  0
 15 14  1  0  0  0  0
 15 16  1  0  0  0  0
 16 17  1  0  0  0  0
 17 18  1  0  0  0  0
 18 19  1  0  0  0  0
 19 20  1  0  0  0  0
 20 21  1  0  0  0  0
 21 22  1  0  0  0  0
 22 23  2  0  0  0  0
 23 24  1  0  0  0  0
 24 25  2  0  0  0  0
 25 26  1  0  0  0  0
 26 27  2  0  0  0  0
 19 28  1  0  0  0  0
 14 29  2  0  0  0  0
  8 30  1  0  0  0  0
 30 31  2  0  0  0  0
 31  5  1  0  0  0  0
 29  9  1  0  0  0  0
 28 15  1  0  0  0  0
 27 22  1  0  0  0  0
M  END
>  <zinc_id>  (287) 
ZINC000072353595

>  <smiles>  (287) 
CNC(=O)c1ccc(-c2cc(C)nc([C@@H]3CCCN(CCc4ccccc4)C3)c2)cn1

>  <source_line>  (287) 
287

>  <source_data>  (287) 
ZINC000072353595

>  <source_name>  (287) 


>  <source_label>  (287) 
ZINC000072353595

>  <found_by>  (287) 
ZINC

> <Gold.Version>
5.8.1

> <Gold.Id.Protein>
ID|ID_protein|mol2

> <Gold.Goldscore.Fitness>
65.2753

> <Gold.Goldscore.Internal.Vdw>
-0.1776

> <Gold.Goldscore.Internal.Torsion>
-5.6210

> <Gold.Goldscore.External.Vdw>
48.2810

> <Gold.Goldscore.Internal.HBond>
0.0000

> <Gold.Goldscore.External.HBond>
4.2359

> <Gold.Goldscore.Internal.Correction>
-0.4516

> <Gold.Goldscore.Hbonds>
donor molecule, donor type, donor heavy atom, donor atom, acceptor molecule, acceptor atom, score
      P1  H   426  4822       L1    31  0.09
      P1  H  1776  6036       L1     2  0.67

> <Gold.Goldscore.Internal.Vdw.Weighted>
-0.1776

> <Gold.Goldscore.Internal.Torsion.Weighted>
-5.6210

> <Gold.Goldscore.External.Vdw.Weighted>
66.3864

> <Gold.Goldscore.Internal.HBond.Weighted>
0.0000

> <Gold.Goldscore.External.HBond.Weighted>
4.2359

> <Gold.Goldscore.Internal.Correction.Weighted>
-0.4516

> <Gold.Protein.RotatedTorsions>
[ 4464  112  111  109 ] final  -32.37 input   60.00 | X-H torsion
[ 4839  441  440  439 ] final  140.95 input   60.00 | X-H torsion
[ 4985  758  757  756 ] final  165.68 input   60.00 | X-H torsion
[ 5271 1023 1022 1020 ] final  -70.65 input   60.00 | X-H torsion
[ 6036 1776 1775 1774 ] final  -96.60 input   60.00 | X-H torsion
[ 6078 1819 1818 1817 ] final -169.00 input   60.00 | X-H torsion
[ 6166 1916 1915 1913 ] final  -37.46 input   60.00 | X-H torsion
[ 4818   65   64   63 ] final -169.06 input   60.00 | X-H torsion
[ 6268 1997 1996 1994 ] final  139.90 input   60.00 | X-H torsion
[ 8592   72   71   70 ] final -150.13 input   60.00 | X-H torsion
[ 4356  100   99   97 ] final  140.99 input   60.00 | X-H torsion
[ 8510  202  201  200 ] final  140.71 input   60.00 | X-H torsion
[ 5330 1065 1064 1063 ] final  133.61 input   60.00 | X-H torsion
[ 6640 2347 2346 2344 ] final -111.02 input   60.00 | X-H torsion
[ 4452  380  379  378 ] final  -49.50 input   60.00 | X-H torsion
[ 4500  391  390  389 ] final  171.69 input   60.00 | X-H torsion

> <Gold.Protein.ActiveResidues>
 THR8    THR9    PRO10   ILE11   TYR12   TYR13   VAL14   ASN15   ALA16   HIS19  
 HIS22   SER25   VAL29   MET46   THR47   GLY48   THR49   ASP50   GLU51   HIS52  
 GLY53   GLN54   LYS55   VAL56   ALA57   GLU58   THR71   PHE78   ILE93   THR95  
 THR96   HIS100  GLU101  VAL104  TRP108  TYR126  VAL128  SER129  ASP130  GLU131 
 SER132  LEU210  SER211  ILE212  SER213  ARG214  LYS215  ARG216  SER218  VAL219 
 MET220  ASN221  TRP222  SER223  ILE224  PRO225  VAL226  HIS232  CYS233  ILE234 
 TYR235  VAL236  TRP237  LEU238  ASP239  ALA240  LEU241  PHE242  ASN243  TYR244 
 TYR245  THR246  HIS275  VAL276  VAL277  GLY278  LYS279  ASP280  ILE281  LEU282 
 LYS283  PHE284  HIS285  ALA286  ILE287  TYR288  TRP289  PRO290  PHE292  LEU304 
 TRP309 

> <Gold.Protein.RotatedAtoms>
  -32.0921   -8.1095   -6.3734 H   0  0  0  0  0  0  0  0  0  0  0  0  # atno 4356 bound_to 100 
  -31.0717   -9.4537   -9.5946 H   0  0  0  0  0  0  0  0  0  0  0  0  # atno 4452 bound_to 380 
  -44.7386  -11.5621  -16.4126 H   0  0  0  0  0  0  0  0  0  0  0  0  # atno 4464 bound_to 112 
  -34.7686   -9.8130  -16.9214 H   0  0  0  0  0  0  0  0  0  0  0  0  # atno 4500 bound_to 391 
  -31.3364  -16.7194   -3.7545 H   0  0  0  0  0  0  0  0  0  0  0  0  # atno 4818 bound_to 65  
  -47.7978  -11.5097  -13.9437 H   0  0  0  0  0  0  0  0  0  0  0  0  # atno 4839 bound_to 441 
  -48.8907  -11.2460  -12.7258 H   0  0  0  0  0  0  0  0  0  0  0  0  # atno 4840 bound_to 441 
  -49.2873  -10.8711  -14.2908 H   0  0  0  0  0  0  0  0  0  0  0  0  # atno 4841 bound_to 441 
  -38.5120  -17.4504  -15.8178 H   0  0  0  0  0  0  0  0  0  0  0  0  # atno 4985 bound_to 758 
  -54.4652  -16.5206  -13.5621 H   0  0  0  0  0  0  0  0  0  0  0  0  # atno 5271 bound_to 1023
  -54.7110  -14.5062   -7.3787 H   0  0  0  0  0  0  0  0  0  0  0  0  # atno 5330 bound_to 1065
  -53.3385  -16.9439  -17.7942 H   0  0  0  0  0  0  0  0  0  0  0  0  # atno 6036 bound_to 1776
  -46.1195  -18.1227  -18.4546 H   0  0  0  0  0  0  0  0  0  0  0  0  # atno 6078 bound_to 1819
  -49.3402  -15.0413  -12.2301 H   0  0  0  0  0  0  0  0  0  0  0  0  # atno 6166 bound_to 1916
  -35.7911  -15.7776   -5.3519 H   0  0  0  0  0  0  0  0  0  0  0  0  # atno 6268 bound_to 1997
  -49.3134  -20.3539   -2.8807 H   0  0  0  0  0  0  0  0  0  0  0  0  # atno 6640 bound_to 2347
  -35.6439   -6.8188   -2.8562 H   0  0  0  0  0  0  0  0  0  0  0  0  # atno 8510 bound_to 202 
  -32.0887   -8.5890   -5.0895 H   0  0  0  0  0  0  0  0  0  0  0  0  # atno 8592 bound_to 72  
  -45.6862  -10.2392  -16.4060 LP  0  0  0  0  0  0  0  0  0  0  0  0  # atno 8618 bound_to 112 
  -45.9878  -11.4682  -15.3739 LP  0  0  0  0  0  0  0  0  0  0  0  0  # atno 8619 bound_to 112 
  -37.1719  -18.2331  -16.3072 LP  0  0  0  0  0  0  0  0  0  0  0  0  # atno 8637 bound_to 758 
  -38.1343  -17.4940  -17.4000 LP  0  0  0  0  0  0  0  0  0  0  0  0  # atno 8638 bound_to 758 
  -54.7386  -16.5581  -15.1658 LP  0  0  0  0  0  0  0  0  0  0  0  0  # atno 8642 bound_to 1023
  -54.2658  -17.9112  -14.3834 LP  0  0  0  0  0  0  0  0  0  0  0  0  # atno 8643 bound_to 1023
  -54.8787  -17.4208  -17.5734 LP  0  0  0  0  0  0  0  0  0  0  0  0  # atno 8662 bound_to 1776
  -54.5461  -16.1451  -18.5371 LP  0  0  0  0  0  0  0  0  0  0  0  0  # atno 8663 bound_to 1776
  -46.0163  -17.2329  -19.8132 LP  0  0  0  0  0  0  0  0  0  0  0  0  # atno 8672 bound_to 1819
  -44.7517  -17.3045  -18.7826 LP  0  0  0  0  0  0  0  0  0  0  0  0  # atno 8673 bound_to 1819
  -49.2776  -15.4857  -10.6659 LP  0  0  0  0  0  0  0  0  0  0  0  0  # atno 8684 bound_to 1916
  -50.6413  -15.7251  -11.5318 LP  0  0  0  0  0  0  0  0  0  0  0  0  # atno 8685 bound_to 1916
  -31.5330  -15.1477   -3.3818 LP  0  0  0  0  0  0  0  0  0  0  0  0  # atno 8712 bound_to 65  
  -30.4057  -16.0388   -2.6062 LP  0  0  0  0  0  0  0  0  0  0  0  0  # atno 8713 bound_to 65  
  -34.4065  -14.9373   -5.1940 LP  0  0  0  0  0  0  0  0  0  0  0  0  # atno 8724 bound_to 1997
  -35.0134  -15.7630   -3.9226 LP  0  0  0  0  0  0  0  0  0  0  0  0  # atno 8725 bound_to 1997
  -31.5631   -8.9288   -3.5874 LP  0  0  0  0  0  0  0  0  0  0  0  0  # atno 8747 bound_to 72  
  -32.8691   -9.7001   -4.1926 LP  0  0  0  0  0  0  0  0  0  0  0  0  # atno 8748 bound_to 72  
  -33.2846   -7.8927   -5.2875 LP  0  0  0  0  0  0  0  0  0  0  0  0  # atno 8749 bound_to 100 
  -32.5264   -6.6022   -5.9404 LP  0  0  0  0  0  0  0  0  0  0  0  0  # atno 8750 bound_to 100 
  -35.0143   -5.9791   -1.6125 LP  0  0  0  0  0  0  0  0  0  0  0  0  # atno 8754 bound_to 202 
  -35.2160   -7.5950   -1.4915 LP  0  0  0  0  0  0  0  0  0  0  0  0  # atno 8755 bound_to 202 
  -53.9983  -15.3748   -8.5558 LP  0  0  0  0  0  0  0  0  0  0  0  0  # atno 8775 bound_to 1065
  -54.0435  -15.9482   -7.0275 LP  0  0  0  0  0  0  0  0  0  0  0  0  # atno 8776 bound_to 1065
  -48.8978  -19.9536   -1.3591 LP  0  0  0  0  0  0  0  0  0  0  0  0  # atno 8779 bound_to 2347
  -49.4817  -21.4436   -1.6839 LP  0  0  0  0  0  0  0  0  0  0  0  0  # atno 8780 bound_to 2347
  -30.2784   -8.2106   -8.9066 LP  0  0  0  0  0  0  0  0  0  0  0  0  # atno 8787 bound_to 380 
  -30.9489   -9.3714   -7.9741 LP  0  0  0  0  0  0  0  0  0  0  0  0  # atno 8788 bound_to 380 

$$$$
