unknown|11k_best|sdf|8291|dock7
  -GOLD-   3 721 0583D 1   1.00000     0.00000

 26 28  0  0  0  0  0  0  0  0  1 V2000
  -42.6340  -17.0667  -14.9740 C   0  0  0  0  0  0  0  0  0  0  0  0
  -43.5292  -18.2846  -15.1505 C   0  0  0  0  0  0  0  0  0  0  0  0
  -43.7647  -18.5584  -16.6022 C   0  0  0  0  0  0  0  0  0  0  0  0
  -43.1177  -19.5288  -17.0927 O   0  0  0  0  0  0  0  0  0  0  0  0
  -45.1182  -18.4337  -17.0525 N   0  0  0  0  0  0  0  0  0  0  0  0
  -45.9479  -17.4439  -16.4289 C   0  0  0  0  0  0  0  0  0  0  0  0
  -47.0453  -16.8502  -16.9630 N   0  0  0  0  0  0  0  0  0  0  0  0
  -47.7655  -16.2438  -16.0549 N   0  0  0  0  0  0  0  0  0  0  0  0
  -47.0546  -15.4009  -15.2974 C   0  0  0  0  0  0  0  0  0  0  0  0
  -47.5001  -13.8480  -14.6038 S   0  0  0  0  0  0  0  0  0  0  0  0
  -46.3945  -12.8929  -14.8775 O   0  0  0  0  0  0  0  0  0  0  0  0
  -48.7166  -13.3679  -15.3629 O   0  0  0  0  0  0  0  0  0  0  0  0
  -47.8098  -14.1136  -12.9529 N   0  0  0  0  0  0  0  0  0  0  0  0
  -47.2234  -13.3725  -11.8757 C   0  0  0  0  0  0  0  0  0  0  0  0
  -46.1126  -12.5949  -11.8885 N   0  0  0  0  0  0  0  0  0  0  0  0
  -45.2326  -12.9609  -11.0014 N   0  0  0  0  0  0  0  0  0  0  0  0
  -45.7486  -13.0466   -9.7492 C   0  0  0  0  0  0  0  0  0  0  0  0
  -44.9706  -13.3952   -8.5448 C   0  0  0  0  0  0  0  0  0  0  0  0
  -45.5620  -14.2197   -7.5951 C   0  0  0  0  0  0  0  0  0  0  0  0
  -44.8175  -15.0976   -6.8177 C   0  0  0  0  0  0  0  0  0  0  0  0
  -43.4684  -15.2236   -7.0134 C   0  0  0  0  0  0  0  0  0  0  0  0
  -42.4581  -16.0493   -5.8367 Cl  0  0  0  0  0  0  0  0  0  0  0  0
  -42.8930  -14.5740   -8.0704 C   0  0  0  0  0  0  0  0  0  0  0  0
  -43.5873  -13.5097   -8.6268 C   0  0  0  0  0  0  0  0  0  0  0  0
  -47.3338  -13.5733  -10.1711 S   0  0  0  0  0  0  0  0  0  0  0  0
  -45.5749  -16.2713  -15.2246 S   0  0  0  0  0  0  0  0  0  0  0  0
  1  2  1  0  0  0  0
  2  3  1  0  0  0  0
  3  4  2  0  0  0  0
  3  5  1  0  0  0  0
  5  6  1  0  0  0  0
  6  7  2  0  0  0  0
  7  8  1  0  0  0  0
  8  9  2  0  0  0  0
  9 10  1  0  0  0  0
 10 11  2  0  0  0  0
 10 12  2  0  0  0  0
 10 13  1  0  0  0  0
 13 14  1  0  0  0  0
 14 15  2  0  0  0  0
 15 16  1  0  0  0  0
 16 17  2  0  0  0  0
 17 18  1  0  0  0  0
 18 19  2  0  0  0  0
 19 20  1  0  0  0  0
 20 21  2  0  0  0  0
 21 22  1  0  0  0  0
 21 23  1  0  0  0  0
 23 24  2  0  0  0  0
 17 25  1  0  0  0  0
  9 26  1  0  0  0  0
 26  6  1  0  0  0  0
 25 14  1  0  0  0  0
 24 18  1  0  0  0  0
M  END
>  <zinc_id>  (291) 
ZINC000223102381

>  <smiles>  (291) 
CCC(=O)Nc1nnc(S(=O)(=O)Nc2nnc(-c3ccc(Cl)cc3)s2)s1

>  <source_line>  (291) 
291

>  <source_data>  (291) 
ZINC000223102381

>  <source_name>  (291) 


>  <source_label>  (291) 
ZINC000223102381

>  <found_by>  (291) 
ZINC

> <Gold.Version>
5.8.1

> <Gold.Id.Protein>
ID|ID_protein|mol2

> <Gold.Goldscore.Fitness>
82.2045

> <Gold.Goldscore.Internal.Vdw>
1.8496

> <Gold.Goldscore.Internal.Torsion>
-11.5378

> <Gold.Goldscore.External.Vdw>
49.9384

> <Gold.Goldscore.Internal.HBond>
0.0000

> <Gold.Goldscore.External.HBond>
15.9072

> <Gold.Goldscore.Internal.Correction>
-7.3201

> <Gold.Goldscore.Hbonds>
donor molecule, donor type, donor heavy atom, donor atom, acceptor molecule, acceptor atom, score
      P1  H   112  4464       L1    11  1.00
      P1  H   426  4822       L1    12  0.06
      P1  H   435  4829       L1    12  0.09
      P1  H   441  4839       L1    11  1.00
      P1  H  1822  6079       L1     4  0.81
      P1  H  1916  6166       L1    13  1.00

> <Gold.Goldscore.Internal.Vdw.Weighted>
1.8496

> <Gold.Goldscore.Internal.Torsion.Weighted>
-11.5378

> <Gold.Goldscore.External.Vdw.Weighted>
68.6653

> <Gold.Goldscore.Internal.HBond.Weighted>
0.0000

> <Gold.Goldscore.External.HBond.Weighted>
15.9072

> <Gold.Goldscore.Internal.Correction.Weighted>
-7.3201

> <Gold.Protein.RotatedTorsions>
[ 4464  112  111  109 ] final   61.72 input   60.00 | X-H torsion
[ 4839  441  440  439 ] final  138.12 input   60.00 | X-H torsion
[ 4985  758  757  756 ] final  -53.72 input   60.00 | X-H torsion
[ 5271 1023 1022 1020 ] final   34.45 input   60.00 | X-H torsion
[ 6036 1776 1775 1774 ] final   96.00 input   60.00 | X-H torsion
[ 6078 1819 1818 1817 ] final  -12.03 input   60.00 | X-H torsion
[ 6166 1916 1915 1913 ] final  -59.83 input   60.00 | X-H torsion
[ 4818   65   64   63 ] final  156.47 input   60.00 | X-H torsion
[ 6268 1997 1996 1994 ] final   48.28 input   60.00 | X-H torsion
[ 8592   72   71   70 ] final   41.54 input   60.00 | X-H torsion
[ 4356  100   99   97 ] final  -89.57 input   60.00 | X-H torsion
[ 8510  202  201  200 ] final    4.85 input   60.00 | X-H torsion
[ 5330 1065 1064 1063 ] final  -47.44 input   60.00 | X-H torsion
[ 6640 2347 2346 2344 ] final  113.85 input   60.00 | X-H torsion
[ 4452  380  379  378 ] final   32.03 input   60.00 | X-H torsion
[ 4500  391  390  389 ] final   39.41 input   60.00 | X-H torsion

> <Gold.Protein.ActiveResidues>
 THR8    THR9    PRO10   ILE11   TYR12   TYR13   VAL14   ASN15   ALA16   HIS19  
 HIS22   SER25   VAL29   MET46   THR47   GLY48   THR49   ASP50   GLU51   HIS52  
 GLY53   GLN54   LYS55   VAL56   ALA57   GLU58   THR71   PHE78   ILE93   THR95  
 THR96   HIS100  GLU101  VAL104  TRP108  TYR126  VAL128  SER129  ASP130  GLU131 
 SER132  LEU210  SER211  ILE212  SER213  ARG214  LYS215  ARG216  SER218  VAL219 
 MET220  ASN221  TRP222  SER223  ILE224  PRO225  VAL226  HIS232  CYS233  ILE234 
 TYR235  VAL236  TRP237  LEU238  ASP239  ALA240  LEU241  PHE242  ASN243  TYR244 
 TYR245  THR246  HIS275  VAL276  VAL277  GLY278  LYS279  ASP280  ILE281  LEU282 
 LYS283  PHE284  HIS285  ALA286  ILE287  TYR288  TRP289  PRO290  PHE292  LEU304 
 TRP309 

> <Gold.Protein.RotatedAtoms>
  -32.6428   -6.6004   -5.8383 H   0  0  0  0  0  0  0  0  0  0  0  0  # atno 4356 bound_to 100 
  -31.1911   -9.7368   -8.4113 H   0  0  0  0  0  0  0  0  0  0  0  0  # atno 4452 bound_to 380 
  -45.6927  -11.7594  -15.4489 H   0  0  0  0  0  0  0  0  0  0  0  0  # atno 4464 bound_to 112 
  -34.9180  -11.3375  -16.1560 H   0  0  0  0  0  0  0  0  0  0  0  0  # atno 4500 bound_to 391 
  -31.6592  -16.2987   -3.9175 H   0  0  0  0  0  0  0  0  0  0  0  0  # atno 4818 bound_to 65  
  -47.8102  -11.4987  -13.9880 H   0  0  0  0  0  0  0  0  0  0  0  0  # atno 4839 bound_to 441 
  -48.8479  -11.2642  -12.7170 H   0  0  0  0  0  0  0  0  0  0  0  0  # atno 4840 bound_to 441 
  -49.3178  -10.8640  -14.2553 H   0  0  0  0  0  0  0  0  0  0  0  0  # atno 4841 bound_to 441 
  -37.8481  -17.6662  -17.4365 H   0  0  0  0  0  0  0  0  0  0  0  0  # atno 4985 bound_to 758 
  -54.2364  -17.8687  -14.1452 H   0  0  0  0  0  0  0  0  0  0  0  0  # atno 5271 bound_to 1023
  -53.7963  -16.0502   -7.9125 H   0  0  0  0  0  0  0  0  0  0  0  0  # atno 5330 bound_to 1065
  -55.1854  -16.8938  -18.0192 H   0  0  0  0  0  0  0  0  0  0  0  0  # atno 6036 bound_to 1776
  -44.8954  -17.0504  -19.3019 H   0  0  0  0  0  0  0  0  0  0  0  0  # atno 6078 bound_to 1819
  -49.0736  -15.0174  -11.9845 H   0  0  0  0  0  0  0  0  0  0  0  0  # atno 6166 bound_to 1916
  -34.7030  -15.0133   -5.5382 H   0  0  0  0  0  0  0  0  0  0  0  0  # atno 6268 bound_to 1997
  -48.9342  -20.1438   -1.2051 H   0  0  0  0  0  0  0  0  0  0  0  0  # atno 6640 bound_to 2347
  -34.9568   -6.1377   -1.4157 H   0  0  0  0  0  0  0  0  0  0  0  0  # atno 8510 bound_to 202 
  -32.1032   -9.4569   -3.4414 H   0  0  0  0  0  0  0  0  0  0  0  0  # atno 8592 bound_to 72  
  -44.7326  -11.2086  -16.6417 LP  0  0  0  0  0  0  0  0  0  0  0  0  # atno 8618 bound_to 112 
  -45.9805  -10.3001  -16.1087 LP  0  0  0  0  0  0  0  0  0  0  0  0  # atno 8619 bound_to 112 
  -38.6759  -17.3179  -16.0794 LP  0  0  0  0  0  0  0  0  0  0  0  0  # atno 8637 bound_to 758 
  -37.2989  -18.1918  -15.9977 LP  0  0  0  0  0  0  0  0  0  0  0  0  # atno 8638 bound_to 758 
  -54.5339  -16.3319  -13.7003 LP  0  0  0  0  0  0  0  0  0  0  0  0  # atno 8642 bound_to 1023
  -54.7010  -16.7799  -15.2618 LP  0  0  0  0  0  0  0  0  0  0  0  0  # atno 8643 bound_to 1023
  -53.7940  -16.1655  -18.4454 LP  0  0  0  0  0  0  0  0  0  0  0  0  # atno 8662 bound_to 1776
  -53.7710  -17.4508  -17.4384 LP  0  0  0  0  0  0  0  0  0  0  0  0  # atno 8663 bound_to 1776
  -45.5856  -18.0350  -18.2054 LP  0  0  0  0  0  0  0  0  0  0  0  0  # atno 8672 bound_to 1819
  -46.4152  -17.5823  -19.5371 LP  0  0  0  0  0  0  0  0  0  0  0  0  # atno 8673 bound_to 1819
  -49.5998  -15.6317  -10.5725 LP  0  0  0  0  0  0  0  0  0  0  0  0  # atno 8684 bound_to 1916
  -50.5877  -15.6031  -11.8725 LP  0  0  0  0  0  0  0  0  0  0  0  0  # atno 8685 bound_to 1916
  -31.1505  -15.0678   -2.9825 LP  0  0  0  0  0  0  0  0  0  0  0  0  # atno 8712 bound_to 65  
  -30.4632  -16.5424   -2.8413 LP  0  0  0  0  0  0  0  0  0  0  0  0  # atno 8713 bound_to 65  
  -34.6389  -15.4999   -3.9867 LP  0  0  0  0  0  0  0  0  0  0  0  0  # atno 8724 bound_to 1997
  -35.8768  -15.9700   -4.9423 LP  0  0  0  0  0  0  0  0  0  0  0  0  # atno 8725 bound_to 1997
  -32.8630   -9.3404   -4.8756 LP  0  0  0  0  0  0  0  0  0  0  0  0  # atno 8747 bound_to 72  
  -31.5545   -8.4145   -4.5640 LP  0  0  0  0  0  0  0  0  0  0  0  0  # atno 8748 bound_to 72  
  -32.0223   -7.9835   -6.4301 LP  0  0  0  0  0  0  0  0  0  0  0  0  # atno 8749 bound_to 100 
  -33.2341   -8.0311   -5.3366 LP  0  0  0  0  0  0  0  0  0  0  0  0  # atno 8750 bound_to 100 
  -35.3190   -7.6971   -1.7074 LP  0  0  0  0  0  0  0  0  0  0  0  0  # atno 8754 bound_to 202 
  -35.6033   -6.5629   -2.8473 LP  0  0  0  0  0  0  0  0  0  0  0  0  # atno 8755 bound_to 202 
  -54.5115  -15.1583   -6.7544 LP  0  0  0  0  0  0  0  0  0  0  0  0  # atno 8775 bound_to 1065
  -54.4516  -14.6097   -8.2913 LP  0  0  0  0  0  0  0  0  0  0  0  0  # atno 8776 bound_to 1065
  -49.5360  -21.4737   -1.9243 LP  0  0  0  0  0  0  0  0  0  0  0  0  # atno 8779 bound_to 2347
  -49.2253  -20.1350   -2.8061 LP  0  0  0  0  0  0  0  0  0  0  0  0  # atno 8780 bound_to 2347
  -30.7681   -8.9424   -9.7671 LP  0  0  0  0  0  0  0  0  0  0  0  0  # atno 8787 bound_to 380 
  -30.3390   -8.3545   -8.3053 LP  0  0  0  0  0  0  0  0  0  0  0  0  # atno 8788 bound_to 380 

$$$$
