unknown|11k_best|sdf|8256|dock8
  -GOLD-   3 721 0133D 1   1.00000     0.00000

 31 34  0  0  0  0  0  0  0  0  1 V2000
  -41.4480  -16.5823  -14.4537 C   0  0  0  0  0  0  0  0  0  0  0  0
  -42.5766  -17.3353  -14.8906 O   0  0  0  0  0  0  0  0  0  0  0  0
  -43.8495  -16.7607  -14.9377 C   0  0  0  0  0  0  0  0  0  0  0  0
  -44.1349  -15.7056  -14.0802 C   0  0  0  0  0  0  0  0  0  0  0  0
  -45.3569  -15.0479  -14.1495 C   0  0  0  0  0  0  0  0  0  0  0  0
  -45.4521  -13.5946  -13.9664 C   0  0  0  0  0  0  0  0  0  0  0  0
  -45.1096  -12.9934  -12.8504 C   0  0  0  0  0  0  0  0  0  0  0  0
  -45.7873  -11.8468  -12.2831 C   0  0  0  0  0  0  0  0  0  0  0  0
  -45.2856  -10.7097  -12.5349 O   0  0  0  0  0  0  0  0  0  0  0  0
  -46.8283  -11.9685  -11.3067 N   0  0  0  0  0  0  0  0  0  0  0  0
  -46.9300  -10.8793  -10.3822 C   0  0  0  0  0  0  0  0  0  0  0  0
  -48.2038  -10.5882   -9.9118 C   0  0  0  0  0  0  0  0  0  0  0  0
  -48.5745   -9.3183   -9.5085 C   0  0  0  0  0  0  0  0  0  0  0  0
  -47.7928   -8.2420   -9.9111 C   0  0  0  0  0  0  0  0  0  0  0  0
  -46.4436   -8.5201  -10.0908 C   0  0  0  0  0  0  0  0  0  0  0  0
  -45.3927   -7.5544   -9.8242 C   0  0  0  0  0  0  0  0  0  0  0  0
  -44.0662   -7.9279   -9.6508 C   0  0  0  0  0  0  0  0  0  0  0  0
  -43.2717   -6.8609   -9.8543 N   0  0  0  0  0  0  0  0  0  0  0  0
  -44.0976   -5.7865   -9.8071 C   0  0  0  0  0  0  0  0  0  0  0  0
  -45.3795   -6.2222   -9.8866 N   0  0  0  0  0  0  0  0  0  0  0  0
  -43.1078   -4.4746  -10.5484 S   0  0  0  0  0  0  0  0  0  0  0  0
  -41.5344   -5.4100  -10.5853 C   0  0  0  0  0  0  0  0  0  0  0  0
  -41.9067   -6.4841   -9.5670 C   0  0  0  0  0  0  0  0  0  0  0  0
  -46.0578   -9.8005  -10.4569 C   0  0  0  0  0  0  0  0  0  0  0  0
  -46.3954  -15.7836  -14.7061 C   0  0  0  0  0  0  0  0  0  0  0  0
  -46.1661  -16.8459  -15.5692 C   0  0  0  0  0  0  0  0  0  0  0  0
  -47.1747  -17.3038  -16.4210 O   0  0  0  0  0  0  0  0  0  0  0  0
  -48.4080  -16.5922  -16.3481 C   0  0  0  0  0  0  0  0  0  0  0  0
  -44.8852  -17.3524  -15.6478 C   0  0  0  0  0  0  0  0  0  0  0  0
  -44.5747  -18.3060  -16.6047 O   0  0  0  0  0  0  0  0  0  0  0  0
  -43.2156  -18.7215  -16.6911 C   0  0  0  0  0  0  0  0  0  0  0  0
  1  2  1  0  0  0  0
  2  3  1  0  0  0  0
  3  4  2  0  0  0  0
  4  5  1  0  0  0  0
  5  6  1  0  0  0  0
  6  7  2  0  0  0  0
  7  8  1  0  0  0  0
  8  9  2  0  0  0  0
  8 10  1  0  0  0  0
 10 11  1  0  0  0  0
 11 12  2  0  0  0  0
 12 13  1  0  0  0  0
 13 14  2  0  0  0  0
 14 15  1  0  0  0  0
 15 16  1  0  0  0  0
 16 17  2  0  0  0  0
 17 18  1  0  0  0  0
 18 19  1  0  0  0  0
 19 20  2  0  0  0  0
 19 21  1  0  0  0  0
 21 22  1  0  0  0  0
 22 23  1  0  0  0  0
 15 24  2  0  0  0  0
  5 25  2  0  0  0  0
 25 26  1  0  0  0  0
 26 27  1  0  0  0  0
 27 28  1  0  0  0  0
 26 29  2  0  0  0  0
 29 30  1  0  0  0  0
 30 31  1  0  0  0  0
 29  3  1  0  0  0  0
 24 11  1  0  0  0  0
 20 16  1  0  0  0  0
 23 18  1  0  0  0  0
M  END
>  <zinc_id>  (256) 
ZINC000043939705

>  <smiles>  (256) 
COc1cc(/C=C/C(=O)Nc2cccc(-c3cn4c(n3)SCC4)c2)cc(OC)c1OC

>  <source_line>  (256) 
256

>  <source_data>  (256) 
ZINC000043939705

>  <source_name>  (256) 


>  <source_label>  (256) 
ZINC000043939705

>  <found_by>  (256) 
ZINC

> <Gold.Version>
5.8.1

> <Gold.Id.Protein>
ID|ID_protein|mol2

> <Gold.Goldscore.Fitness>
60.6607

> <Gold.Goldscore.Internal.Vdw>
-5.9848

> <Gold.Goldscore.Internal.Torsion>
-10.6679

> <Gold.Goldscore.External.Vdw>
49.2224

> <Gold.Goldscore.Internal.HBond>
0.0000

> <Gold.Goldscore.External.HBond>
2.2667

> <Gold.Goldscore.Internal.Correction>
-7.3658

> <Gold.Goldscore.Hbonds>
donor molecule, donor type, donor heavy atom, donor atom, acceptor molecule, acceptor atom, score
      P1  H   441  4840       L1    10  0.01
      P1  H  1819  6078       L1    30  1.00
      P1  H   127  4539       L1    20  0.07

> <Gold.Goldscore.Internal.Vdw.Weighted>
-5.9848

> <Gold.Goldscore.Internal.Torsion.Weighted>
-10.6679

> <Gold.Goldscore.External.Vdw.Weighted>
67.6808

> <Gold.Goldscore.Internal.HBond.Weighted>
0.0000

> <Gold.Goldscore.External.HBond.Weighted>
2.2667

> <Gold.Goldscore.Internal.Correction.Weighted>
-7.3658

> <Gold.Protein.RotatedTorsions>
[ 4464  112  111  109 ] final  -34.66 input   60.00 | X-H torsion
[ 4839  441  440  439 ] final   84.47 input   60.00 | X-H torsion
[ 4985  758  757  756 ] final -141.96 input   60.00 | X-H torsion
[ 5271 1023 1022 1020 ] final   16.14 input   60.00 | X-H torsion
[ 6036 1776 1775 1774 ] final  165.50 input   60.00 | X-H torsion
[ 6078 1819 1818 1817 ] final -113.15 input   60.00 | X-H torsion
[ 6166 1916 1915 1913 ] final -119.78 input   60.00 | X-H torsion
[ 4818   65   64   63 ] final   87.33 input   60.00 | X-H torsion
[ 6268 1997 1996 1994 ] final   56.79 input   60.00 | X-H torsion
[ 8592   72   71   70 ] final   99.99 input   60.00 | X-H torsion
[ 4356  100   99   97 ] final   38.88 input   60.00 | X-H torsion
[ 8510  202  201  200 ] final   61.48 input   60.00 | X-H torsion
[ 5330 1065 1064 1063 ] final  142.06 input   60.00 | X-H torsion
[ 6640 2347 2346 2344 ] final   -9.50 input   60.00 | X-H torsion
[ 4452  380  379  378 ] final   74.62 input   60.00 | X-H torsion
[ 4500  391  390  389 ] final -123.04 input   60.00 | X-H torsion

> <Gold.Protein.ActiveResidues>
 THR8    THR9    PRO10   ILE11   TYR12   TYR13   VAL14   ASN15   ALA16   HIS19  
 HIS22   SER25   VAL29   MET46   THR47   GLY48   THR49   ASP50   GLU51   HIS52  
 GLY53   GLN54   LYS55   VAL56   ALA57   GLU58   THR71   PHE78   ILE93   THR95  
 THR96   HIS100  GLU101  VAL104  TRP108  TYR126  VAL128  SER129  ASP130  GLU131 
 SER132  LEU210  SER211  ILE212  SER213  ARG214  LYS215  ARG216  SER218  VAL219 
 MET220  ASN221  TRP222  SER223  ILE224  PRO225  VAL226  HIS232  CYS233  ILE234 
 TYR235  VAL236  TRP237  LEU238  ASP239  ALA240  LEU241  PHE242  ASN243  TYR244 
 TYR245  THR246  HIS275  VAL276  VAL277  GLY278  LYS279  ASP280  ILE281  LEU282 
 LYS283  PHE284  HIS285  ALA286  ILE287  TYR288  TRP289  PRO290  PHE292  LEU304 
 TRP309 

> <Gold.Protein.RotatedAtoms>
  -33.1729   -8.1393   -5.3977 H   0  0  0  0  0  0  0  0  0  0  0  0  # atno 4356 bound_to 100 
  -30.9124   -9.3180   -7.9538 H   0  0  0  0  0  0  0  0  0  0  0  0  # atno 4452 bound_to 380 
  -44.7323  -11.5335  -16.4360 H   0  0  0  0  0  0  0  0  0  0  0  0  # atno 4464 bound_to 112 
  -33.8620   -9.8526  -16.4787 H   0  0  0  0  0  0  0  0  0  0  0  0  # atno 4500 bound_to 391 
  -31.6617  -15.2971   -3.5631 H   0  0  0  0  0  0  0  0  0  0  0  0  # atno 4818 bound_to 65  
  -48.3741  -11.1945  -14.5670 H   0  0  0  0  0  0  0  0  0  0  0  0  # atno 4839 bound_to 441 
  -48.0698  -11.5368  -12.9740 H   0  0  0  0  0  0  0  0  0  0  0  0  # atno 4840 bound_to 441 
  -49.5319  -10.8955  -13.4193 H   0  0  0  0  0  0  0  0  0  0  0  0  # atno 4841 bound_to 441 
  -38.7262  -17.2213  -16.5819 H   0  0  0  0  0  0  0  0  0  0  0  0  # atno 4985 bound_to 758 
  -54.2192  -17.7438  -13.8753 H   0  0  0  0  0  0  0  0  0  0  0  0  # atno 5271 bound_to 1023
  -54.7098  -14.5629   -7.2528 H   0  0  0  0  0  0  0  0  0  0  0  0  # atno 5330 bound_to 1065
  -54.5667  -17.5477  -17.4458 H   0  0  0  0  0  0  0  0  0  0  0  0  # atno 6036 bound_to 1776
  -45.3047  -17.9081  -18.2120 H   0  0  0  0  0  0  0  0  0  0  0  0  # atno 6078 bound_to 1819
  -48.9218  -15.2316  -11.0866 H   0  0  0  0  0  0  0  0  0  0  0  0  # atno 6166 bound_to 1916
  -34.8122  -15.0585   -5.6114 H   0  0  0  0  0  0  0  0  0  0  0  0  # atno 6268 bound_to 1997
  -49.5410  -21.4666   -1.9790 H   0  0  0  0  0  0  0  0  0  0  0  0  # atno 6640 bound_to 2347
  -35.2432   -5.8917   -2.2195 H   0  0  0  0  0  0  0  0  0  0  0  0  # atno 8510 bound_to 202 
  -31.4969   -8.8213   -3.6949 H   0  0  0  0  0  0  0  0  0  0  0  0  # atno 8592 bound_to 72  
  -45.7149  -10.2376  -16.3817 LP  0  0  0  0  0  0  0  0  0  0  0  0  # atno 8618 bound_to 112 
  -45.9654  -11.4985  -15.3747 LP  0  0  0  0  0  0  0  0  0  0  0  0  # atno 8619 bound_to 112 
  -37.6464  -18.0158  -15.6595 LP  0  0  0  0  0  0  0  0  0  0  0  0  # atno 8637 bound_to 758 
  -37.4441  -17.9420  -17.2782 LP  0  0  0  0  0  0  0  0  0  0  0  0  # atno 8638 bound_to 758 
  -54.6166  -16.1670  -13.9369 LP  0  0  0  0  0  0  0  0  0  0  0  0  # atno 8642 bound_to 1023
  -54.6356  -17.0705  -15.2970 LP  0  0  0  0  0  0  0  0  0  0  0  0  # atno 8643 bound_to 1023
  -54.8603  -16.2996  -18.4480 LP  0  0  0  0  0  0  0  0  0  0  0  0  # atno 8662 bound_to 1776
  -53.3277  -16.6583  -18.0133 LP  0  0  0  0  0  0  0  0  0  0  0  0  # atno 8663 bound_to 1776
  -46.5027  -17.7657  -19.3040 LP  0  0  0  0  0  0  0  0  0  0  0  0  # atno 8672 bound_to 1819
  -45.0858  -16.9878  -19.5361 LP  0  0  0  0  0  0  0  0  0  0  0  0  # atno 8673 bound_to 1819
  -50.4346  -15.8190  -10.9669 LP  0  0  0  0  0  0  0  0  0  0  0  0  # atno 8684 bound_to 1916
  -49.9057  -15.2001  -12.3824 LP  0  0  0  0  0  0  0  0  0  0  0  0  # atno 8685 bound_to 1916
  -30.4651  -15.7791   -2.5713 LP  0  0  0  0  0  0  0  0  0  0  0  0  # atno 8712 bound_to 65  
  -31.1460  -16.8398   -3.6095 LP  0  0  0  0  0  0  0  0  0  0  0  0  # atno 8713 bound_to 65  
  -34.5432  -15.4176   -4.0472 LP  0  0  0  0  0  0  0  0  0  0  0  0  # atno 8724 bound_to 1997
  -35.8625  -16.0068   -4.8080 LP  0  0  0  0  0  0  0  0  0  0  0  0  # atno 8725 bound_to 1997
  -32.8049   -9.7253   -4.0412 LP  0  0  0  0  0  0  0  0  0  0  0  0  # atno 8747 bound_to 72  
  -32.2233   -8.6697   -5.1431 LP  0  0  0  0  0  0  0  0  0  0  0  0  # atno 8748 bound_to 72  
  -32.7440   -6.6082   -5.7440 LP  0  0  0  0  0  0  0  0  0  0  0  0  # atno 8749 bound_to 100 
  -31.9786   -7.8568   -6.4664 LP  0  0  0  0  0  0  0  0  0  0  0  0  # atno 8750 bound_to 100 
  -34.9955   -7.0850   -1.1413 LP  0  0  0  0  0  0  0  0  0  0  0  0  # atno 8754 bound_to 202 
  -35.6383   -7.4228   -2.6039 LP  0  0  0  0  0  0  0  0  0  0  0  0  # atno 8755 bound_to 202 
  -54.0578  -15.2507   -8.5756 LP  0  0  0  0  0  0  0  0  0  0  0  0  # atno 8775 bound_to 1065
  -53.9852  -16.0151   -7.1344 LP  0  0  0  0  0  0  0  0  0  0  0  0  # atno 8776 bound_to 1065
  -49.2049  -20.0907   -2.7802 LP  0  0  0  0  0  0  0  0  0  0  0  0  # atno 8779 bound_to 2347
  -48.9453  -20.1859   -1.1708 LP  0  0  0  0  0  0  0  0  0  0  0  0  # atno 8780 bound_to 2347
  -31.1029   -9.5025   -9.5593 LP  0  0  0  0  0  0  0  0  0  0  0  0  # atno 8787 bound_to 380 
  -30.2849   -8.2162   -8.9738 LP  0  0  0  0  0  0  0  0  0  0  0  0  # atno 8788 bound_to 380 

$$$$
