unknown|11k_best|sdf|8306|dock7
  -GOLD-   3 721 1183D 1   1.00000     0.00000

 27 29  0  0  0  0  0  0  0  0  1 V2000
  -44.3157  -14.9202  -14.5870 C   0  0  0  0  0  0  0  0  0  0  0  0
  -45.7212  -15.0637  -14.9262 N   0  0  0  0  0  0  0  0  0  0  0  0
  -46.1514  -16.3697  -15.4073 C   0  0  0  0  0  0  0  0  0  0  0  0
  -46.6585  -14.0659  -14.5326 C   0  0  0  0  0  0  0  0  0  0  0  0
  -47.8432  -14.2118  -14.9530 O   0  0  0  0  0  0  0  0  0  0  0  0
  -46.4745  -13.3175  -13.3276 N   0  0  0  0  0  0  0  0  0  0  0  0
  -45.3911  -13.6040  -12.4057 C   0  0  0  0  0  0  0  0  0  0  0  0
  -45.9645  -13.7007  -11.0342 C   0  0  0  0  0  0  0  0  0  0  0  0
  -45.4998  -12.9363   -9.9725 C   0  0  0  0  0  0  0  0  0  0  0  0
  -46.4660  -13.0122   -9.0037 C   0  0  0  0  0  0  0  0  0  0  0  0
  -47.4775  -13.7824   -9.4753 N   0  0  0  0  0  0  0  0  0  0  0  0
  -47.1734  -14.2057  -10.6893 N   0  0  0  0  0  0  0  0  0  0  0  0
  -48.3764  -14.5276   -8.5963 C   0  0  0  0  0  0  0  0  0  0  0  0
  -49.2544  -13.5127   -7.9309 C   0  0  0  0  0  0  0  0  0  0  0  0
  -48.6235  -12.7661   -6.8092 C   0  0  0  0  0  0  0  0  0  0  0  0
  -47.2177  -12.8610   -6.6879 N   0  0  0  0  0  0  0  0  0  0  0  0
  -46.7034  -14.0699   -6.1360 C   0  0  0  0  0  0  0  0  0  0  0  0
  -45.3796  -13.9144   -5.5217 C   0  0  0  0  0  0  0  0  0  0  0  0
  -44.2282  -13.9418   -6.1510 C   0  0  0  0  0  0  0  0  0  0  0  0
  -43.0872  -14.6960   -5.6110 C   0  0  0  0  0  0  0  0  0  0  0  0
  -41.9440  -13.9628   -5.3256 C   0  0  0  0  0  0  0  0  0  0  0  0
  -40.6687  -14.4723   -5.5366 C   0  0  0  0  0  0  0  0  0  0  0  0
  -40.5079  -15.7102   -6.1381 C   0  0  0  0  0  0  0  0  0  0  0  0
  -39.3924  -16.0230   -6.8567 F   0  0  0  0  0  0  0  0  0  0  0  0
  -41.6011  -16.5612   -6.0640 C   0  0  0  0  0  0  0  0  0  0  0  0
  -42.8779  -16.0315   -5.9344 C   0  0  0  0  0  0  0  0  0  0  0  0
  -46.4409  -12.2730   -7.7254 C   0  0  0  0  0  0  0  0  0  0  0  0
  1  2  1  0  0  0  0
  2  3  1  0  0  0  0
  2  4  1  0  0  0  0
  4  5  2  0  0  0  0
  4  6  1  0  0  0  0
  6  7  1  0  0  0  0
  7  8  1  0  0  0  0
  8  9  1  0  0  0  0
  9 10  2  0  0  0  0
 10 11  1  0  0  0  0
 11 12  1  0  0  0  0
 11 13  1  0  0  0  0
 13 14  1  0  0  0  0
 14 15  1  0  0  0  0
 15 16  1  0  0  0  0
 16 17  1  0  0  0  0
 17 18  1  0  0  0  0
 18 19  2  0  0  0  0
 19 20  1  0  0  0  0
 20 21  2  0  0  0  0
 21 22  1  0  0  0  0
 22 23  2  0  0  0  0
 23 24  1  0  0  0  0
 23 25  1  0  0  0  0
 25 26  2  0  0  0  0
 16 27  1  0  0  0  0
 12  8  2  0  0  0  0
 26 20  1  0  0  0  0
 27 10  1  0  0  0  0
M  END
>  <zinc_id>  (306) 
ZINC000082172156

>  <smiles>  (306) 
CN(C)C(=O)NCc1cc2n(n1)CCCN(C/C=C/c1ccc(F)cc1)C2

>  <source_line>  (306) 
306

>  <source_data>  (306) 
ZINC000082172156

>  <source_name>  (306) 


>  <source_label>  (306) 
ZINC000082172156

>  <found_by>  (306) 
ZINC

> <Gold.Version>
5.8.1

> <Gold.Id.Protein>
ID|ID_protein|mol2

> <Gold.Goldscore.Fitness>
55.5181

> <Gold.Goldscore.Internal.Vdw>
1.3311

> <Gold.Goldscore.Internal.Torsion>
-9.6124

> <Gold.Goldscore.External.Vdw>
34.0059

> <Gold.Goldscore.Internal.HBond>
0.0000

> <Gold.Goldscore.External.HBond>
12.2075

> <Gold.Goldscore.Internal.Correction>
-4.8338

> <Gold.Goldscore.Hbonds>
donor molecule, donor type, donor heavy atom, donor atom, acceptor molecule, acceptor atom, score
      P1  H   112  4464       L1     6  0.03
      P1  H   441  4839       L1     6  1.00
      P1  H  1916  6166       L1    12  1.00

> <Gold.Goldscore.Internal.Vdw.Weighted>
1.3311

> <Gold.Goldscore.Internal.Torsion.Weighted>
-9.6124

> <Gold.Goldscore.External.Vdw.Weighted>
46.7581

> <Gold.Goldscore.Internal.HBond.Weighted>
0.0000

> <Gold.Goldscore.External.HBond.Weighted>
12.2075

> <Gold.Goldscore.Internal.Correction.Weighted>
-4.8338

> <Gold.Protein.RotatedTorsions>
[ 4464  112  111  109 ] final   63.02 input   60.00 | X-H torsion
[ 4839  441  440  439 ] final  167.85 input   60.00 | X-H torsion
[ 4985  758  757  756 ] final  160.44 input   60.00 | X-H torsion
[ 5271 1023 1022 1020 ] final  -79.72 input   60.00 | X-H torsion
[ 6036 1776 1775 1774 ] final   58.16 input   60.00 | X-H torsion
[ 6078 1819 1818 1817 ] final   -0.50 input   60.00 | X-H torsion
[ 6166 1916 1915 1913 ] final -116.26 input   60.00 | X-H torsion
[ 4818   65   64   63 ] final  -68.48 input   60.00 | X-H torsion
[ 6268 1997 1996 1994 ] final -169.36 input   60.00 | X-H torsion
[ 8592   72   71   70 ] final  116.51 input   60.00 | X-H torsion
[ 4356  100   99   97 ] final  114.39 input   60.00 | X-H torsion
[ 8510  202  201  200 ] final  107.36 input   60.00 | X-H torsion
[ 5330 1065 1064 1063 ] final  175.96 input   60.00 | X-H torsion
[ 6640 2347 2346 2344 ] final  -60.42 input   60.00 | X-H torsion
[ 4452  380  379  378 ] final -121.65 input   60.00 | X-H torsion
[ 4500  391  390  389 ] final -171.08 input   60.00 | X-H torsion

> <Gold.Protein.ActiveResidues>
 THR8    THR9    PRO10   ILE11   TYR12   TYR13   VAL14   ASN15   ALA16   HIS19  
 HIS22   SER25   VAL29   MET46   THR47   GLY48   THR49   ASP50   GLU51   HIS52  
 GLY53   GLN54   LYS55   VAL56   ALA57   GLU58   THR71   PHE78   ILE93   THR95  
 THR96   HIS100  GLU101  VAL104  TRP108  TYR126  VAL128  SER129  ASP130  GLU131 
 SER132  LEU210  SER211  ILE212  SER213  ARG214  LYS215  ARG216  SER218  VAL219 
 MET220  ASN221  TRP222  SER223  ILE224  PRO225  VAL226  HIS232  CYS233  ILE234 
 TYR235  VAL236  TRP237  LEU238  ASP239  ALA240  LEU241  PHE242  ASN243  TYR244 
 TYR245  THR246  HIS275  VAL276  VAL277  GLY278  LYS279  ASP280  ILE281  LEU282 
 LYS283  PHE284  HIS285  ALA286  ILE287  TYR288  TRP289  PRO290  PHE292  LEU304 
 TRP309 

> <Gold.Protein.RotatedAtoms>
  -32.3441   -8.3801   -6.1525 H   0  0  0  0  0  0  0  0  0  0  0  0  # atno 4356 bound_to 100 
  -30.4935   -8.5151   -9.5711 H   0  0  0  0  0  0  0  0  0  0  0  0  # atno 4452 bound_to 380 
  -45.7089  -11.7474  -15.4421 H   0  0  0  0  0  0  0  0  0  0  0  0  # atno 4464 bound_to 112 
  -34.5127   -9.7209  -16.8530 H   0  0  0  0  0  0  0  0  0  0  0  0  # atno 4500 bound_to 391 
  -30.4109  -16.3347   -2.7200 H   0  0  0  0  0  0  0  0  0  0  0  0  # atno 4818 bound_to 65  
  -47.7873  -11.5751  -13.5035 H   0  0  0  0  0  0  0  0  0  0  0  0  # atno 4839 bound_to 441 
  -49.2547  -11.0752  -12.9168 H   0  0  0  0  0  0  0  0  0  0  0  0  # atno 4840 bound_to 441 
  -48.9339  -10.9765  -14.5400 H   0  0  0  0  0  0  0  0  0  0  0  0  # atno 4841 bound_to 441 
  -38.4592  -17.4903  -15.7634 H   0  0  0  0  0  0  0  0  0  0  0  0  # atno 4985 bound_to 758 
  -54.5083  -16.4042  -13.6429 H   0  0  0  0  0  0  0  0  0  0  0  0  # atno 5271 bound_to 1023
  -54.6091  -14.9283   -6.8602 H   0  0  0  0  0  0  0  0  0  0  0  0  # atno 5330 bound_to 1065
  -54.9973  -16.4300  -18.3628 H   0  0  0  0  0  0  0  0  0  0  0  0  # atno 6036 bound_to 1776
  -45.0052  -17.0087  -19.4487 H   0  0  0  0  0  0  0  0  0  0  0  0  # atno 6078 bound_to 1819
  -48.9048  -15.2101  -11.1373 H   0  0  0  0  0  0  0  0  0  0  0  0  # atno 6166 bound_to 1916
  -35.7962  -16.0402   -4.5939 H   0  0  0  0  0  0  0  0  0  0  0  0  # atno 6268 bound_to 1997
  -49.5415  -21.0979   -2.6945 H   0  0  0  0  0  0  0  0  0  0  0  0  # atno 6640 bound_to 2347
  -35.5222   -6.3060   -2.7516 H   0  0  0  0  0  0  0  0  0  0  0  0  # atno 8510 bound_to 202 
  -31.4300   -8.6596   -3.8991 H   0  0  0  0  0  0  0  0  0  0  0  0  # atno 8592 bound_to 72  
  -44.7291  -11.2278  -16.6329 LP  0  0  0  0  0  0  0  0  0  0  0  0  # atno 8618 bound_to 112 
  -45.9677  -10.2929  -16.1245 LP  0  0  0  0  0  0  0  0  0  0  0  0  # atno 8619 bound_to 112 
  -37.1549  -18.2333  -16.3918 LP  0  0  0  0  0  0  0  0  0  0  0  0  # atno 8637 bound_to 758 
  -38.2044  -17.4537  -17.3702 LP  0  0  0  0  0  0  0  0  0  0  0  0  # atno 8638 bound_to 758 
  -54.7176  -16.6905  -15.2311 LP  0  0  0  0  0  0  0  0  0  0  0  0  # atno 8642 bound_to 1023
  -54.2435  -17.8960  -14.2368 LP  0  0  0  0  0  0  0  0  0  0  0  0  # atno 8643 bound_to 1023
  -53.3870  -16.5042  -18.1398 LP  0  0  0  0  0  0  0  0  0  0  0  0  # atno 8662 bound_to 1776
  -54.3673  -17.5792  -17.3981 LP  0  0  0  0  0  0  0  0  0  0  0  0  # atno 8663 bound_to 1776
  -45.4107  -17.9633  -18.1947 LP  0  0  0  0  0  0  0  0  0  0  0  0  # atno 8672 bound_to 1819
  -46.4795  -17.6959  -19.4000 LP  0  0  0  0  0  0  0  0  0  0  0  0  # atno 8673 bound_to 1819
  -50.3982  -15.8193  -10.9217 LP  0  0  0  0  0  0  0  0  0  0  0  0  # atno 8684 bound_to 1916
  -49.9592  -15.2215  -12.3766 LP  0  0  0  0  0  0  0  0  0  0  0  0  # atno 8685 bound_to 1916
  -31.5421  -16.5113   -3.8764 LP  0  0  0  0  0  0  0  0  0  0  0  0  # atno 8712 bound_to 65  
  -31.3287  -15.0627   -3.1534 LP  0  0  0  0  0  0  0  0  0  0  0  0  # atno 8713 bound_to 65  
  -35.0014  -15.1478   -5.6984 LP  0  0  0  0  0  0  0  0  0  0  0  0  # atno 8724 bound_to 1997
  -34.4133  -15.2880   -4.1815 LP  0  0  0  0  0  0  0  0  0  0  0  0  # atno 8725 bound_to 1997
  -32.6591   -9.7226   -3.8131 LP  0  0  0  0  0  0  0  0  0  0  0  0  # atno 8747 bound_to 72  
  -32.4364   -8.8352   -5.1657 LP  0  0  0  0  0  0  0  0  0  0  0  0  # atno 8748 bound_to 72  
  -33.3293   -7.4643   -5.2365 LP  0  0  0  0  0  0  0  0  0  0  0  0  # atno 8749 bound_to 100 
  -32.2280   -6.7581   -6.2138 LP  0  0  0  0  0  0  0  0  0  0  0  0  # atno 8750 bound_to 100 
  -34.9229   -6.3603   -1.2397 LP  0  0  0  0  0  0  0  0  0  0  0  0  # atno 8754 bound_to 202 
  -35.4300   -7.7302   -1.9697 LP  0  0  0  0  0  0  0  0  0  0  0  0  # atno 8755 bound_to 202 
  -54.3244  -14.7852   -8.4560 LP  0  0  0  0  0  0  0  0  0  0  0  0  # atno 8775 bound_to 1065
  -53.8201  -16.1126   -7.6495 LP  0  0  0  0  0  0  0  0  0  0  0  0  # atno 8776 bound_to 1065
  -48.9460  -19.6962   -2.1212 LP  0  0  0  0  0  0  0  0  0  0  0  0  # atno 8779 bound_to 2347
  -49.2038  -20.9517   -1.1093 LP  0  0  0  0  0  0  0  0  0  0  0  0  # atno 8780 bound_to 2347
  -30.5480   -8.7206   -7.9578 LP  0  0  0  0  0  0  0  0  0  0  0  0  # atno 8787 bound_to 380 
  -31.2616   -9.8067   -8.9466 LP  0  0  0  0  0  0  0  0  0  0  0  0  # atno 8788 bound_to 380 

$$$$
