unknown|11k_best|sdf|8309|dock1
  -GOLD-   3 721 1213D 1   1.00000     0.00000

 27 29  0  0  0  0  0  0  0  0  1 V2000
  -52.4745   -8.4662  -12.3710 C   0  0  0  0  0  0  0  0  0  0  0  0
  -51.7648   -8.3358  -11.1643 O   0  0  0  0  0  0  0  0  0  0  0  0
  -51.0228   -9.3585  -10.5845 C   0  0  0  0  0  0  0  0  0  0  0  0
  -50.9610  -10.6357  -11.1289 C   0  0  0  0  0  0  0  0  0  0  0  0
  -49.7464  -11.3094  -11.0957 C   0  0  0  0  0  0  0  0  0  0  0  0
  -48.6934  -10.8528  -10.3133 C   0  0  0  0  0  0  0  0  0  0  0  0
  -47.2966  -11.1909  -10.6237 C   0  0  0  0  0  0  0  0  0  0  0  0
  -46.9668  -11.9724  -11.6507 N   0  0  0  0  0  0  0  0  0  0  0  0
  -45.7732  -12.5878  -11.4592 C   0  0  0  0  0  0  0  0  0  0  0  0
  -45.3104  -13.6173  -12.3455 N   0  0  0  0  0  0  0  0  0  0  0  0
  -46.2410  -14.4473  -13.0484 C   0  0  0  0  0  0  0  0  0  0  0  0
  -47.4495  -14.3074  -12.6973 O   0  0  0  0  0  0  0  0  0  0  0  0
  -45.8175  -15.4116  -14.0604 C   0  0  0  0  0  0  0  0  0  0  0  0
  -46.5420  -15.6414  -15.2231 C   0  0  0  0  0  0  0  0  0  0  0  0
  -46.3570  -16.8709  -15.8327 C   0  0  0  0  0  0  0  0  0  0  0  0
  -47.7362  -17.7173  -16.8567 Br  0  0  0  0  0  0  0  0  0  0  0  0
  -45.0768  -17.4032  -15.7576 C   0  0  0  0  0  0  0  0  0  0  0  0
  -44.7713  -18.4309  -16.6454 O   0  0  0  0  0  0  0  0  0  0  0  0
  -44.0933  -16.7623  -15.0271 C   0  0  0  0  0  0  0  0  0  0  0  0
  -42.7764  -17.1820  -15.1547 O   0  0  0  0  0  0  0  0  0  0  0  0
  -41.7276  -16.5985  -14.4254 C   0  0  0  0  0  0  0  0  0  0  0  0
  -44.4819  -15.7885  -14.1175 C   0  0  0  0  0  0  0  0  0  0  0  0
  -44.9177  -11.3001  -10.7045 S   0  0  0  0  0  0  0  0  0  0  0  0
  -46.2659  -10.3160  -10.2938 C   0  0  0  0  0  0  0  0  0  0  0  0
  -46.3557   -8.8641   -9.9523 C   0  0  0  0  0  0  0  0  0  0  0  0
  -49.0191   -9.9045   -9.3575 C   0  0  0  0  0  0  0  0  0  0  0  0
  -50.1492   -9.1163   -9.5324 C   0  0  0  0  0  0  0  0  0  0  0  0
  1  2  1  0  0  0  0
  2  3  1  0  0  0  0
  3  4  2  0  0  0  0
  4  5  1  0  0  0  0
  5  6  2  0  0  0  0
  6  7  1  0  0  0  0
  7  8  1  0  0  0  0
  8  9  2  0  0  0  0
  9 10  1  0  0  0  0
 10 11  1  0  0  0  0
 11 12  2  0  0  0  0
 11 13  1  0  0  0  0
 13 14  2  0  0  0  0
 14 15  1  0  0  0  0
 15 16  1  0  0  0  0
 15 17  2  0  0  0  0
 17 18  1  0  0  0  0
 17 19  1  0  0  0  0
 19 20  1  0  0  0  0
 20 21  1  0  0  0  0
 19 22  2  0  0  0  0
  9 23  1  0  0  0  0
 23 24  1  0  0  0  0
 24 25  1  0  0  0  0
  6 26  1  0  0  0  0
 26 27  2  0  0  0  0
 27  3  1  0  0  0  0
 24  7  2  0  0  0  0
 22 13  1  0  0  0  0
M  END
>  <zinc_id>  (309) 
ZINC000012982099

>  <smiles>  (309) 
COc1ccc(-c2nc(NC(=O)c3cc(Br)c(O)c(OC)c3)sc2C)cc1

>  <source_line>  (309) 
309

>  <source_data>  (309) 
ZINC000012982099

>  <source_name>  (309) 


>  <source_label>  (309) 
ZINC000012982099

>  <found_by>  (309) 
ZINC

> <Gold.Version>
5.8.1

> <Gold.Id.Protein>
ID|ID_protein|mol2

> <Gold.Goldscore.Fitness>
69.3864

> <Gold.Goldscore.Internal.Vdw>
1.0816

> <Gold.Goldscore.Internal.Torsion>
-5.8777

> <Gold.Goldscore.External.Vdw>
44.8418

> <Gold.Goldscore.Internal.HBond>
0.0000

> <Gold.Goldscore.External.HBond>
8.9551

> <Gold.Goldscore.Internal.Correction>
-3.5699

> <Gold.Goldscore.Hbonds>
donor molecule, donor type, donor heavy atom, donor atom, acceptor molecule, acceptor atom, score
      P1  H   441  4840       L1     8  0.35
      P1  H  1819  6078       L1    18  1.00
      P1  H  1916  6166       L1    12  0.41

> <Gold.Goldscore.Internal.Vdw.Weighted>
1.0816

> <Gold.Goldscore.Internal.Torsion.Weighted>
-5.8777

> <Gold.Goldscore.External.Vdw.Weighted>
61.6575

> <Gold.Goldscore.Internal.HBond.Weighted>
0.0000

> <Gold.Goldscore.External.HBond.Weighted>
8.9551

> <Gold.Goldscore.Internal.Correction.Weighted>
-3.5699

> <Gold.Protein.RotatedTorsions>
[ 4464  112  111  109 ] final    1.60 input   60.00 | X-H torsion
[ 4839  441  440  439 ] final   85.89 input   60.00 | X-H torsion
[ 4985  758  757  756 ] final  -15.96 input   60.00 | X-H torsion
[ 5271 1023 1022 1020 ] final -126.89 input   60.00 | X-H torsion
[ 6036 1776 1775 1774 ] final  163.89 input   60.00 | X-H torsion
[ 6078 1819 1818 1817 ] final -110.67 input   60.00 | X-H torsion
[ 6166 1916 1915 1913 ] final  -73.37 input   60.00 | X-H torsion
[ 4818   65   64   63 ] final   -0.50 input   60.00 | X-H torsion
[ 6268 1997 1996 1994 ] final    9.94 input   60.00 | X-H torsion
[ 8592   72   71   70 ] final  -84.08 input   60.00 | X-H torsion
[ 4356  100   99   97 ] final -152.09 input   60.00 | X-H torsion
[ 8510  202  201  200 ] final  -14.76 input   60.00 | X-H torsion
[ 5330 1065 1064 1063 ] final -172.33 input   60.00 | X-H torsion
[ 6640 2347 2346 2344 ] final  116.85 input   60.00 | X-H torsion
[ 4452  380  379  378 ] final -106.08 input   60.00 | X-H torsion
[ 4500  391  390  389 ] final  -36.59 input   60.00 | X-H torsion

> <Gold.Protein.ActiveResidues>
 THR8    THR9    PRO10   ILE11   TYR12   TYR13   VAL14   ASN15   ALA16   HIS19  
 HIS22   SER25   VAL29   MET46   THR47   GLY48   THR49   ASP50   GLU51   HIS52  
 GLY53   GLN54   LYS55   VAL56   ALA57   GLU58   THR71   PHE78   ILE93   THR95  
 THR96   HIS100  GLU101  VAL104  TRP108  TYR126  VAL128  SER129  ASP130  GLU131 
 SER132  LEU210  SER211  ILE212  SER213  ARG214  LYS215  ARG216  SER218  VAL219 
 MET220  ASN221  TRP222  SER223  ILE224  PRO225  VAL226  HIS232  CYS233  ILE234 
 TYR235  VAL236  TRP237  LEU238  ASP239  ALA240  LEU241  PHE242  ASN243  TYR244 
 TYR245  THR246  HIS275  VAL276  VAL277  GLY278  LYS279  ASP280  ILE281  LEU282 
 LYS283  PHE284  HIS285  ALA286  ILE287  TYR288  TRP289  PRO290  PHE292  LEU304 
 TRP309 

> <Gold.Protein.RotatedAtoms>
  -32.0218   -7.0801   -6.4113 H   0  0  0  0  0  0  0  0  0  0  0  0  # atno 4356 bound_to 100 
  -30.6133   -8.7006   -9.6960 H   0  0  0  0  0  0  0  0  0  0  0  0  # atno 4452 bound_to 380 
  -44.9598  -11.8753  -16.0224 H   0  0  0  0  0  0  0  0  0  0  0  0  # atno 4464 bound_to 112 
  -33.8628  -10.9774  -15.8630 H   0  0  0  0  0  0  0  0  0  0  0  0  # atno 4500 bound_to 391 
  -30.7228  -15.3368   -2.6669 H   0  0  0  0  0  0  0  0  0  0  0  0  # atno 4818 bound_to 65  
  -48.3534  -11.2037  -14.5604 H   0  0  0  0  0  0  0  0  0  0  0  0  # atno 4839 bound_to 441 
  -48.0865  -11.5325  -12.9579 H   0  0  0  0  0  0  0  0  0  0  0  0  # atno 4840 bound_to 441 
  -49.5360  -10.8907  -13.4421 H   0  0  0  0  0  0  0  0  0  0  0  0  # atno 4841 bound_to 441 
  -37.3839  -17.9851  -17.2130 H   0  0  0  0  0  0  0  0  0  0  0  0  # atno 4985 bound_to 758 
  -54.7022  -16.0868  -14.2932 H   0  0  0  0  0  0  0  0  0  0  0  0  # atno 5271 bound_to 1023
  -54.5430  -15.0901   -6.7828 H   0  0  0  0  0  0  0  0  0  0  0  0  # atno 5330 bound_to 1065
  -54.5913  -17.5416  -17.4530 H   0  0  0  0  0  0  0  0  0  0  0  0  # atno 6036 bound_to 1776
  -45.2699  -17.8885  -18.2185 H   0  0  0  0  0  0  0  0  0  0  0  0  # atno 6078 bound_to 1819
  -48.9598  -15.0324  -11.7959 H   0  0  0  0  0  0  0  0  0  0  0  0  # atno 6166 bound_to 1916
  -34.3422  -14.9499   -5.0445 H   0  0  0  0  0  0  0  0  0  0  0  0  # atno 6268 bound_to 1997
  -48.9253  -20.1042   -1.2326 H   0  0  0  0  0  0  0  0  0  0  0  0  # atno 6640 bound_to 2347
  -34.9215   -6.3943   -1.2296 H   0  0  0  0  0  0  0  0  0  0  0  0  # atno 8510 bound_to 202 
  -32.8227   -9.2804   -4.9330 H   0  0  0  0  0  0  0  0  0  0  0  0  # atno 8592 bound_to 72  
  -45.2450  -10.4163  -16.6843 LP  0  0  0  0  0  0  0  0  0  0  0  0  # atno 8618 bound_to 112 
  -46.2062  -10.9756  -15.4886 LP  0  0  0  0  0  0  0  0  0  0  0  0  # atno 8619 bound_to 112 
  -38.7164  -17.2180  -16.6801 LP  0  0  0  0  0  0  0  0  0  0  0  0  # atno 8637 bound_to 758 
  -37.7259  -17.9705  -15.6221 LP  0  0  0  0  0  0  0  0  0  0  0  0  # atno 8638 bound_to 758 
  -54.5332  -17.4217  -15.2084 LP  0  0  0  0  0  0  0  0  0  0  0  0  # atno 8642 bound_to 1023
  -54.2326  -17.4845  -13.6046 LP  0  0  0  0  0  0  0  0  0  0  0  0  # atno 8643 bound_to 1023
  -54.8399  -16.2853  -18.4571 LP  0  0  0  0  0  0  0  0  0  0  0  0  # atno 8662 bound_to 1776
  -53.3233  -16.6787  -17.9969 LP  0  0  0  0  0  0  0  0  0  0  0  0  # atno 8663 bound_to 1776
  -46.5073  -17.7885  -19.2705 LP  0  0  0  0  0  0  0  0  0  0  0  0  # atno 8672 bound_to 1819
  -45.1163  -16.9848  -19.5630 LP  0  0  0  0  0  0  0  0  0  0  0  0  # atno 8673 bound_to 1819
  -49.8093  -15.7056  -10.5822 LP  0  0  0  0  0  0  0  0  0  0  0  0  # atno 8684 bound_to 1916
  -50.4928  -15.5141  -12.0528 LP  0  0  0  0  0  0  0  0  0  0  0  0  # atno 8685 bound_to 1916
  -30.7683  -16.8558   -3.2489 LP  0  0  0  0  0  0  0  0  0  0  0  0  # atno 8712 bound_to 65  
  -31.7884  -15.7231   -3.8345 LP  0  0  0  0  0  0  0  0  0  0  0  0  # atno 8713 bound_to 65  
  -35.1531  -15.8428   -3.9522 LP  0  0  0  0  0  0  0  0  0  0  0  0  # atno 8724 bound_to 1997
  -35.7259  -15.6910   -5.4739 LP  0  0  0  0  0  0  0  0  0  0  0  0  # atno 8725 bound_to 1997
  -31.5146   -8.4243   -4.4813 LP  0  0  0  0  0  0  0  0  0  0  0  0  # atno 8747 bound_to 72  
  -32.1784   -9.5083   -3.4562 LP  0  0  0  0  0  0  0  0  0  0  0  0  # atno 8748 bound_to 72  
  -32.6546   -8.4787   -5.8713 LP  0  0  0  0  0  0  0  0  0  0  0  0  # atno 8749 bound_to 100 
  -33.2273   -7.0528   -5.3185 LP  0  0  0  0  0  0  0  0  0  0  0  0  # atno 8750 bound_to 100 
  -35.4428   -7.7283   -2.0022 LP  0  0  0  0  0  0  0  0  0  0  0  0  # atno 8754 bound_to 202 
  -35.5150   -6.2733   -2.7399 LP  0  0  0  0  0  0  0  0  0  0  0  0  # atno 8755 bound_to 202 
  -54.4154  -14.6562   -8.3460 LP  0  0  0  0  0  0  0  0  0  0  0  0  # atno 8775 bound_to 1065
  -53.7957  -16.0788   -7.8374 LP  0  0  0  0  0  0  0  0  0  0  0  0  # atno 8776 bound_to 1065
  -49.5268  -21.4727   -1.8758 LP  0  0  0  0  0  0  0  0  0  0  0  0  # atno 8779 bound_to 2347
  -49.2435  -20.1759   -2.8269 LP  0  0  0  0  0  0  0  0  0  0  0  0  # atno 8780 bound_to 2347
  -30.4370   -8.5304   -8.0872 LP  0  0  0  0  0  0  0  0  0  0  0  0  # atno 8787 bound_to 380 
  -31.2519   -9.8101   -8.6914 LP  0  0  0  0  0  0  0  0  0  0  0  0  # atno 8788 bound_to 380 

$$$$
