unknown|11k_best|sdf|8258|dock6
  -GOLD-   3 721 0163D 1   1.00000     0.00000

 31 34  0  0  0  0  0  0  0  0  1 V2000
  -42.9173  -15.7731  -14.7152 C   0  0  0  0  0  0  0  0  0  0  0  0
  -43.5194  -15.7982  -14.9287 O   0  0  0  0  0  0  0  0  0  0  0  0
  -44.4865  -16.5470  -15.6052 C   0  0  0  0  0  0  0  0  0  0  0  0
  -44.1879  -17.8474  -15.9929 C   0  0  0  0  0  0  0  0  0  0  0  0
  -45.1795  -18.6266  -16.5772 C   0  0  0  0  0  0  0  0  0  0  0  0
  -46.4148  -18.0350  -16.7281 C   0  0  0  0  0  0  0  0  0  0  0  0
  -46.7500  -17.1021  -15.7527 C   0  0  0  0  0  0  0  0  0  0  0  0
  -45.8026  -16.0980  -15.5708 C   0  0  0  0  0  0  0  0  0  0  0  0
  -46.1265  -15.0857  -14.6810 O   0  0  0  0  0  0  0  0  0  0  0  0
  -47.2883  -15.0769  -13.8779 C   0  0  0  0  0  0  0  0  0  0  0  0
  -47.0452  -14.5422  -12.5192 C   0  0  0  0  0  0  0  0  0  0  0  0
  -46.5199  -13.2840  -12.3245 C   0  0  0  0  0  0  0  0  0  0  0  0
  -46.5177  -13.0144  -10.9775 C   0  0  0  0  0  0  0  0  0  0  0  0
  -46.8978  -14.2142  -10.3879 C   0  0  0  0  0  0  0  0  0  0  0  0
  -46.8654  -14.3797   -8.9440 C   0  0  0  0  0  0  0  0  0  0  0  0
  -47.7554  -15.0822   -8.3889 O   0  0  0  0  0  0  0  0  0  0  0  0
  -45.8741  -13.6666   -8.2199 N   0  0  0  0  0  0  0  0  0  0  0  0
  -45.8263  -14.0583   -6.6740 C   0  0  2  0  0  0  0  0  0  0  0  0
  -45.5076  -12.5117   -6.2346 C   0  0  0  0  0  0  0  0  0  0  0  0
  -44.9217  -12.4526   -4.9721 C   0  0  0  0  0  0  0  0  0  0  0  0
  -45.2468  -11.5185   -4.0273 C   0  0  0  0  0  0  0  0  0  0  0  0
  -46.4886  -10.9294   -4.0989 C   0  0  0  0  0  0  0  0  0  0  0  0
  -47.0861  -10.8910   -5.3279 C   0  0  0  0  0  0  0  0  0  0  0  0
  -46.6430  -11.7091   -6.3254 C   0  0  0  0  0  0  0  0  0  0  0  0
  -44.2457  -14.4624   -6.7880 C   0  0  0  0  0  0  0  0  0  0  0  0
  -44.1836  -15.5928   -7.6006 C   0  0  0  0  0  0  0  0  0  0  0  0
  -43.3883  -16.6863   -7.3072 C   0  0  0  0  0  0  0  0  0  0  0  0
  -42.6318  -16.6278   -6.1568 C   0  0  0  0  0  0  0  0  0  0  0  0
  -42.5266  -15.3844   -5.5473 C   0  0  0  0  0  0  0  0  0  0  0  0
  -43.6168  -14.5832   -5.6202 N   0  0  0  0  0  0  0  0  0  0  0  0
  -47.1778  -15.0737  -11.3387 O   0  0  0  0  0  0  0  0  0  0  0  0
  1  2  1  0  0  0  0
  2  3  1  0  0  0  0
  3  4  2  0  0  0  0
  4  5  1  0  0  0  0
  5  6  2  0  0  0  0
  6  7  1  0  0  0  0
  7  8  2  0  0  0  0
  8  9  1  0  0  0  0
  9 10  1  0  0  0  0
 10 11  1  0  0  0  0
 11 12  2  0  0  0  0
 12 13  1  0  0  0  0
 13 14  2  0  0  0  0
 14 15  1  0  0  0  0
 15 16  2  0  0  0  0
 15 17  1  0  0  0  0
 18 17  1  0  0  0  0
 18 19  1  0  0  0  0
 19 20  2  0  0  0  0
 20 21  1  0  0  0  0
 21 22  2  0  0  0  0
 22 23  1  0  0  0  0
 23 24  2  0  0  0  0
 18 25  1  0  0  0  0
 25 26  2  0  0  0  0
 26 27  1  0  0  0  0
 27 28  2  0  0  0  0
 28 29  1  0  0  0  0
 29 30  2  0  0  0  0
 14 31  1  0  0  0  0
  8  3  1  0  0  0  0
 31 11  1  0  0  0  0
 24 19  1  0  0  0  0
 30 25  1  0  0  0  0
M  END
>  <zinc_id>  (258) 
ZINC000040130544

>  <smiles>  (258) 
COc1ccccc1OCc1ccc(C(=O)N[C@H](c2ccccc2)c2ccccn2)o1

>  <source_line>  (258) 
258

>  <source_data>  (258) 
ZINC000040130544

>  <source_name>  (258) 


>  <source_label>  (258) 
ZINC000040130544

>  <found_by>  (258) 
ZINC

> <Gold.Version>
5.8.1

> <Gold.Id.Protein>
ID|ID_protein|mol2

> <Gold.Goldscore.Fitness>
62.4406

> <Gold.Goldscore.Internal.Vdw>
0.6961

> <Gold.Goldscore.Internal.Torsion>
-6.8065

> <Gold.Goldscore.External.Vdw>
47.7750

> <Gold.Goldscore.Internal.HBond>
0.0000

> <Gold.Goldscore.External.HBond>
0.6978

> <Gold.Goldscore.Internal.Correction>
-2.1626

> <Gold.Goldscore.Hbonds>
donor molecule, donor type, donor heavy atom, donor atom, acceptor molecule, acceptor atom, score
      P1  H  1916  6166       L1    16  0.35

> <Gold.Goldscore.Internal.Vdw.Weighted>
0.6961

> <Gold.Goldscore.Internal.Torsion.Weighted>
-6.8065

> <Gold.Goldscore.External.Vdw.Weighted>
65.6906

> <Gold.Goldscore.Internal.HBond.Weighted>
0.0000

> <Gold.Goldscore.External.HBond.Weighted>
0.6978

> <Gold.Goldscore.Internal.Correction.Weighted>
-2.1626

> <Gold.Protein.RotatedTorsions>
[ 4464  112  111  109 ] final  -92.35 input   60.00 | X-H torsion
[ 4839  441  440  439 ] final  105.95 input   60.00 | X-H torsion
[ 4985  758  757  756 ] final   76.97 input   60.00 | X-H torsion
[ 5271 1023 1022 1020 ] final -102.70 input   60.00 | X-H torsion
[ 6036 1776 1775 1774 ] final   75.27 input   60.00 | X-H torsion
[ 6078 1819 1818 1817 ] final   26.43 input   60.00 | X-H torsion
[ 6166 1916 1915 1913 ] final -161.94 input   60.00 | X-H torsion
[ 4818   65   64   63 ] final -178.29 input   60.00 | X-H torsion
[ 6268 1997 1996 1994 ] final  103.85 input   60.00 | X-H torsion
[ 8592   72   71   70 ] final  -75.03 input   60.00 | X-H torsion
[ 4356  100   99   97 ] final -135.41 input   60.00 | X-H torsion
[ 8510  202  201  200 ] final  134.91 input   60.00 | X-H torsion
[ 5330 1065 1064 1063 ] final   -3.48 input   60.00 | X-H torsion
[ 6640 2347 2346 2344 ] final  110.51 input   60.00 | X-H torsion
[ 4452  380  379  378 ] final  154.27 input   60.00 | X-H torsion
[ 4500  391  390  389 ] final   21.31 input   60.00 | X-H torsion

> <Gold.Protein.ActiveResidues>
 THR8    THR9    PRO10   ILE11   TYR12   TYR13   VAL14   ASN15   ALA16   HIS19  
 HIS22   SER25   VAL29   MET46   THR47   GLY48   THR49   ASP50   GLU51   HIS52  
 GLY53   GLN54   LYS55   VAL56   ALA57   GLU58   THR71   PHE78   ILE93   THR95  
 THR96   HIS100  GLU101  VAL104  TRP108  TYR126  VAL128  SER129  ASP130  GLU131 
 SER132  LEU210  SER211  ILE212  SER213  ARG214  LYS215  ARG216  SER218  VAL219 
 MET220  ASN221  TRP222  SER223  ILE224  PRO225  VAL226  HIS232  CYS233  ILE234 
 TYR235  VAL236  TRP237  LEU238  ASP239  ALA240  LEU241  PHE242  ASN243  TYR244 
 TYR245  THR246  HIS275  VAL276  VAL277  GLY278  LYS279  ASP280  ILE281  LEU282 
 LYS283  PHE284  HIS285  ALA286  ILE287  TYR288  TRP289  PRO290  PHE292  LEU304 
 TRP309 

> <Gold.Protein.RotatedAtoms>
  -32.1418   -6.8647   -6.2975 H   0  0  0  0  0  0  0  0  0  0  0  0  # atno 4356 bound_to 100 
  -30.3307   -8.3430   -8.3399 H   0  0  0  0  0  0  0  0  0  0  0  0  # atno 4452 bound_to 380 
  -44.9534  -10.7163  -16.7507 H   0  0  0  0  0  0  0  0  0  0  0  0  # atno 4464 bound_to 112 
  -34.6620  -11.3766  -16.0156 H   0  0  0  0  0  0  0  0  0  0  0  0  # atno 4500 bound_to 391 
  -31.4370  -16.6277   -3.8193 H   0  0  0  0  0  0  0  0  0  0  0  0  # atno 4818 bound_to 65  
  -48.0848  -11.3311  -14.4095 H   0  0  0  0  0  0  0  0  0  0  0  0  # atno 4839 bound_to 441 
  -48.3555  -11.4508  -12.7786 H   0  0  0  0  0  0  0  0  0  0  0  0  # atno 4840 bound_to 441 
  -49.5356  -10.8449  -13.7723 H   0  0  0  0  0  0  0  0  0  0  0  0  # atno 4841 bound_to 441 
  -37.4012  -18.1414  -15.8647 H   0  0  0  0  0  0  0  0  0  0  0  0  # atno 4985 bound_to 758 
  -54.6131  -16.1813  -13.9230 H   0  0  0  0  0  0  0  0  0  0  0  0  # atno 5271 bound_to 1023
  -53.9005  -15.6147   -8.4517 H   0  0  0  0  0  0  0  0  0  0  0  0  # atno 5330 bound_to 1065
  -55.1297  -16.6294  -18.2203 H   0  0  0  0  0  0  0  0  0  0  0  0  # atno 6036 bound_to 1776
  -45.3505  -16.9987  -19.7148 H   0  0  0  0  0  0  0  0  0  0  0  0  # atno 6078 bound_to 1819
  -49.3400  -15.5179  -10.6433 H   0  0  0  0  0  0  0  0  0  0  0  0  # atno 6166 bound_to 1916
  -35.4485  -15.4448   -5.6799 H   0  0  0  0  0  0  0  0  0  0  0  0  # atno 6268 bound_to 1997
  -48.9451  -20.1893   -1.1769 H   0  0  0  0  0  0  0  0  0  0  0  0  # atno 6640 bound_to 2347
  -35.6304   -6.7251   -2.8587 H   0  0  0  0  0  0  0  0  0  0  0  0  # atno 8510 bound_to 202 
  -32.8744   -9.3755   -4.8326 H   0  0  0  0  0  0  0  0  0  0  0  0  # atno 8592 bound_to 72  
  -46.2043  -10.6158  -15.7147 LP  0  0  0  0  0  0  0  0  0  0  0  0  # atno 8618 bound_to 112 
  -45.2533  -11.9433  -15.7248 LP  0  0  0  0  0  0  0  0  0  0  0  0  # atno 8619 bound_to 112 
  -37.7028  -17.7624  -17.4183 LP  0  0  0  0  0  0  0  0  0  0  0  0  # atno 8637 bound_to 758 
  -38.7220  -17.2688  -16.2417 LP  0  0  0  0  0  0  0  0  0  0  0  0  # atno 8638 bound_to 758 
  -54.6402  -17.0520  -15.2976 LP  0  0  0  0  0  0  0  0  0  0  0  0  # atno 8642 bound_to 1023
  -54.2153  -17.7589  -13.8882 LP  0  0  0  0  0  0  0  0  0  0  0  0  # atno 8643 bound_to 1023
  -53.5332  -16.3230  -18.2961 LP  0  0  0  0  0  0  0  0  0  0  0  0  # atno 8662 bound_to 1776
  -54.0878  -17.5596  -17.3853 LP  0  0  0  0  0  0  0  0  0  0  0  0  # atno 8663 bound_to 1776
  -45.0480  -17.7377  -18.2969 LP  0  0  0  0  0  0  0  0  0  0  0  0  # atno 8672 bound_to 1819
  -46.4944  -17.9317  -19.0298 LP  0  0  0  0  0  0  0  0  0  0  0  0  # atno 8673 bound_to 1819
  -50.6413  -15.7038  -11.6024 LP  0  0  0  0  0  0  0  0  0  0  0  0  # atno 8684 bound_to 1916
  -49.2778  -15.0269  -12.1934 LP  0  0  0  0  0  0  0  0  0  0  0  0  # atno 8685 bound_to 1916
  -31.4408  -15.0947   -3.2735 LP  0  0  0  0  0  0  0  0  0  0  0  0  # atno 8712 bound_to 65  
  -30.3967  -16.1841   -2.6492 LP  0  0  0  0  0  0  0  0  0  0  0  0  # atno 8713 bound_to 65  
  -34.2677  -15.0386   -4.6365 LP  0  0  0  0  0  0  0  0  0  0  0  0  # atno 8724 bound_to 1997
  -35.4972  -15.9968   -4.1498 LP  0  0  0  0  0  0  0  0  0  0  0  0  # atno 8725 bound_to 1997
  -31.5818   -8.4116   -4.6133 LP  0  0  0  0  0  0  0  0  0  0  0  0  # atno 8747 bound_to 72  
  -32.0591   -9.4252   -3.4253 LP  0  0  0  0  0  0  0  0  0  0  0  0  # atno 8748 bound_to 72  
  -32.4530   -8.4430   -6.0525 LP  0  0  0  0  0  0  0  0  0  0  0  0  # atno 8749 bound_to 100 
  -33.3081   -7.3054   -5.2517 LP  0  0  0  0  0  0  0  0  0  0  0  0  # atno 8750 bound_to 100 
  -34.9905   -6.0285   -1.5346 LP  0  0  0  0  0  0  0  0  0  0  0  0  # atno 8754 bound_to 202 
  -35.2533   -7.6399   -1.5668 LP  0  0  0  0  0  0  0  0  0  0  0  0  # atno 8755 bound_to 202 
  -54.1738  -15.7700   -6.8550 LP  0  0  0  0  0  0  0  0  0  0  0  0  # atno 8775 bound_to 1065
  -54.6842  -14.4367   -7.6477 LP  0  0  0  0  0  0  0  0  0  0  0  0  # atno 8776 bound_to 1065
  -49.5453  -21.4721   -1.9785 LP  0  0  0  0  0  0  0  0  0  0  0  0  # atno 8779 bound_to 2347
  -49.2050  -20.0908   -2.7803 LP  0  0  0  0  0  0  0  0  0  0  0  0  # atno 8780 bound_to 2347
  -31.1861   -9.7268   -8.3756 LP  0  0  0  0  0  0  0  0  0  0  0  0  # atno 8787 bound_to 380 
  -30.7875   -8.9738   -9.7687 LP  0  0  0  0  0  0  0  0  0  0  0  0  # atno 8788 bound_to 380 

$$$$
