unknown|11k_best|sdf|8339|dock1
  -GOLD-   3 721 1573D 1   1.00000     0.00000

 28 31  0  0  0  0  0  0  0  0  1 V2000
  -41.2124  -16.7046  -14.9968 C   0  0  0  0  0  0  0  0  0  0  0  0
  -42.5451  -17.2871  -15.2511 C   0  0  0  0  0  0  0  0  0  0  0  0
  -42.8222  -18.1827  -16.2240 N   0  0  0  0  0  0  0  0  0  0  0  0
  -44.1318  -18.2660  -16.3321 N   0  0  0  0  0  0  0  0  0  0  0  0
  -44.7151  -17.4525  -15.4178 C   0  0  0  0  0  0  0  0  0  0  0  0
  -46.1276  -17.0505  -15.2774 C   0  0  0  0  0  0  0  0  0  0  0  0
  -46.2610  -15.6286  -14.9059 C   0  0  0  0  0  0  0  0  0  0  0  0
  -45.1965  -15.0306  -14.2423 C   0  0  0  0  0  0  0  0  0  0  0  0
  -45.4148  -13.9752  -13.3652 C   0  0  0  0  0  0  0  0  0  0  0  0
  -46.6963  -13.5775  -13.0288 C   0  0  0  0  0  0  0  0  0  0  0  0
  -46.9745  -12.4513  -12.2138 N   0  0  0  0  0  0  0  0  0  0  0  0
  -45.8773  -11.8876  -11.4861 C   0  0  0  0  0  0  0  0  0  0  0  0
  -46.0875  -11.0838  -10.5351 O   0  0  0  0  0  0  0  0  0  0  0  0
  -44.5403  -12.3459  -11.6389 N   0  0  0  0  0  0  0  0  0  0  0  0
  -43.4496  -11.8946  -10.7796 C   0  0  0  0  0  0  0  0  0  0  0  0
  -43.4640  -12.6190   -9.4703 C   0  0  0  0  0  0  0  0  0  0  0  0
  -43.7234  -11.8923   -8.3165 C   0  0  0  0  0  0  0  0  0  0  0  0
  -43.2468  -12.2795   -7.0734 C   0  0  0  0  0  0  0  0  0  0  0  0
  -42.3435  -13.3348   -7.0432 C   0  0  0  0  0  0  0  0  0  0  0  0
  -42.1432  -14.1631   -8.1383 C   0  0  0  0  0  0  0  0  0  0  0  0
  -42.6877  -13.7599   -9.3348 C   0  0  0  0  0  0  0  0  0  0  0  0
  -41.8651  -15.5996   -7.8232 C   0  0  0  0  0  0  0  0  0  0  0  0
  -42.7634  -15.9409   -6.6397 C   0  0  0  0  0  0  0  0  0  0  0  0
  -42.2502  -15.2022   -5.4309 C   0  0  0  0  0  0  0  0  0  0  0  0
  -41.8416  -13.7867   -5.7308 C   0  0  0  0  0  0  0  0  0  0  0  0
  -47.7042  -13.9753  -13.8975 C   0  0  0  0  0  0  0  0  0  0  0  0
  -47.4737  -14.9711  -14.8086 C   0  0  0  0  0  0  0  0  0  0  0  0
  -43.7158  -17.0924  -14.6000 N   0  0  0  0  0  0  0  0  0  0  0  0
  1  2  1  0  0  0  0
  2  3  2  0  0  0  0
  3  4  1  0  0  0  0
  4  5  1  0  0  0  0
  5  6  1  0  0  0  0
  6  7  1  0  0  0  0
  7  8  2  0  0  0  0
  8  9  1  0  0  0  0
  9 10  2  0  0  0  0
 10 11  1  0  0  0  0
 11 12  1  0  0  0  0
 12 13  2  0  0  0  0
 12 14  1  0  0  0  0
 14 15  1  0  0  0  0
 15 16  1  0  0  0  0
 16 17  2  0  0  0  0
 17 18  1  0  0  0  0
 18 19  2  0  0  0  0
 19 20  1  0  0  0  0
 20 21  2  0  0  0  0
 20 22  1  0  0  0  0
 22 23  1  0  0  0  0
 23 24  1  0  0  0  0
 24 25  1  0  0  0  0
 10 26  1  0  0  0  0
 26 27  2  0  0  0  0
  5 28  2  0  0  0  0
 28  2  1  0  0  0  0
 27  7  1  0  0  0  0
 21 16  1  0  0  0  0
 25 19  1  0  0  0  0
M  END
>  <zinc_id>  (339) 
ZINC000096163832

>  <smiles>  (339) 
Cc1n[nH]c(Cc2ccc(NC(=O)NCc3ccc4c(c3)CCCC4)cc2)n1

>  <source_line>  (339) 
339

>  <source_data>  (339) 
ZINC000096163832

>  <source_name>  (339) 


>  <source_label>  (339) 
ZINC000096163832

>  <found_by>  (339) 
ZINC

> <Gold.Version>
5.8.1

> <Gold.Id.Protein>
ID|ID_protein|mol2

> <Gold.Goldscore.Fitness>
64.5342

> <Gold.Goldscore.Internal.Vdw>
-0.9292

> <Gold.Goldscore.Internal.Torsion>
-2.9421

> <Gold.Goldscore.External.Vdw>
43.7541

> <Gold.Goldscore.Internal.HBond>
0.0000

> <Gold.Goldscore.External.HBond>
6.9576

> <Gold.Goldscore.Internal.Correction>
-1.2859

> <Gold.Goldscore.Hbonds>
donor molecule, donor type, donor heavy atom, donor atom, acceptor molecule, acceptor atom, score
      P1  H   441  4841       L1    11  0.70

> <Gold.Goldscore.Internal.Vdw.Weighted>
-0.9292

> <Gold.Goldscore.Internal.Torsion.Weighted>
-2.9421

> <Gold.Goldscore.External.Vdw.Weighted>
60.1619

> <Gold.Goldscore.Internal.HBond.Weighted>
0.0000

> <Gold.Goldscore.External.HBond.Weighted>
6.9576

> <Gold.Goldscore.Internal.Correction.Weighted>
-1.2859

> <Gold.Protein.RotatedTorsions>
[ 4464  112  111  109 ] final   23.69 input   60.00 | X-H torsion
[ 4839  441  440  439 ] final  -52.21 input   60.00 | X-H torsion
[ 4985  758  757  756 ] final  158.22 input   60.00 | X-H torsion
[ 5271 1023 1022 1020 ] final  -92.28 input   60.00 | X-H torsion
[ 6036 1776 1775 1774 ] final  -28.10 input   60.00 | X-H torsion
[ 6078 1819 1818 1817 ] final -159.45 input   60.00 | X-H torsion
[ 6166 1916 1915 1913 ] final  171.30 input   60.00 | X-H torsion
[ 4818   65   64   63 ] final  -65.85 input   60.00 | X-H torsion
[ 6268 1997 1996 1994 ] final  171.85 input   60.00 | X-H torsion
[ 8592   72   71   70 ] final  -36.74 input   60.00 | X-H torsion
[ 4356  100   99   97 ] final -131.96 input   60.00 | X-H torsion
[ 8510  202  201  200 ] final   64.10 input   60.00 | X-H torsion
[ 5330 1065 1064 1063 ] final -155.28 input   60.00 | X-H torsion
[ 6640 2347 2346 2344 ] final -113.28 input   60.00 | X-H torsion
[ 4452  380  379  378 ] final  111.84 input   60.00 | X-H torsion
[ 4500  391  390  389 ] final   52.80 input   60.00 | X-H torsion

> <Gold.Protein.ActiveResidues>
 THR8    THR9    PRO10   ILE11   TYR12   TYR13   VAL14   ASN15   ALA16   HIS19  
 HIS22   SER25   VAL29   MET46   THR47   GLY48   THR49   ASP50   GLU51   HIS52  
 GLY53   GLN54   LYS55   VAL56   ALA57   GLU58   THR71   PHE78   ILE93   THR95  
 THR96   HIS100  GLU101  VAL104  TRP108  TYR126  VAL128  SER129  ASP130  GLU131 
 SER132  LEU210  SER211  ILE212  SER213  ARG214  LYS215  ARG216  SER218  VAL219 
 MET220  ASN221  TRP222  SER223  ILE224  PRO225  VAL226  HIS232  CYS233  ILE234 
 TYR235  VAL236  TRP237  LEU238  ASP239  ALA240  LEU241  PHE242  ASN243  TYR244 
 TYR245  THR246  HIS275  VAL276  VAL277  GLY278  LYS279  ASP280  ILE281  LEU282 
 LYS283  PHE284  HIS285  ALA286  ILE287  TYR288  TRP289  PRO290  PHE292  LEU304 
 TRP309 

> <Gold.Protein.RotatedAtoms>
  -32.1721   -6.8267   -6.2692 H   0  0  0  0  0  0  0  0  0  0  0  0  # atno 4356 bound_to 100 
  -30.5988   -8.8100   -7.9286 H   0  0  0  0  0  0  0  0  0  0  0  0  # atno 4452 bound_to 380 
  -45.2043  -11.9382  -15.7677 H   0  0  0  0  0  0  0  0  0  0  0  0  # atno 4464 bound_to 112 
  -35.0816  -11.2571  -16.2760 H   0  0  0  0  0  0  0  0  0  0  0  0  # atno 4500 bound_to 391 
  -30.4060  -16.2962   -2.7015 H   0  0  0  0  0  0  0  0  0  0  0  0  # atno 4818 bound_to 65  
  -49.4447  -10.9654  -13.1650 H   0  0  0  0  0  0  0  0  0  0  0  0  # atno 4839 bound_to 441 
  -48.6285  -11.0888  -14.6023 H   0  0  0  0  0  0  0  0  0  0  0  0  # atno 4840 bound_to 441 
  -47.9027  -11.5727  -13.1929 H   0  0  0  0  0  0  0  0  0  0  0  0  # atno 4841 bound_to 441 
  -38.4355  -17.5077  -15.7422 H   0  0  0  0  0  0  0  0  0  0  0  0  # atno 4985 bound_to 758 
  -54.5670  -16.2681  -13.7843 H   0  0  0  0  0  0  0  0  0  0  0  0  # atno 5271 bound_to 1023
  -54.4260  -15.3374   -6.7356 H   0  0  0  0  0  0  0  0  0  0  0  0  # atno 5330 bound_to 1065
  -53.7399  -16.1962  -18.4190 H   0  0  0  0  0  0  0  0  0  0  0  0  # atno 6036 bound_to 1776
  -45.9925  -18.1217  -18.3644 H   0  0  0  0  0  0  0  0  0  0  0  0  # atno 6078 bound_to 1819
  -49.7361  -15.6820  -10.5801 H   0  0  0  0  0  0  0  0  0  0  0  0  # atno 6166 bound_to 1916
  -35.8661  -15.9852   -4.8863 H   0  0  0  0  0  0  0  0  0  0  0  0  # atno 6268 bound_to 1997
  -49.3002  -20.3204   -2.8726 H   0  0  0  0  0  0  0  0  0  0  0  0  # atno 6640 bound_to 2347
  -35.2601   -5.9015   -2.2577 H   0  0  0  0  0  0  0  0  0  0  0  0  # atno 8510 bound_to 202 
  -32.8930   -9.6704   -4.2943 H   0  0  0  0  0  0  0  0  0  0  0  0  # atno 8592 bound_to 72  
  -44.9904  -10.6626  -16.7551 LP  0  0  0  0  0  0  0  0  0  0  0  0  # atno 8618 bound_to 112 
  -46.2146  -10.6660  -15.6743 LP  0  0  0  0  0  0  0  0  0  0  0  0  # atno 8619 bound_to 112 
  -37.1497  -18.2321  -16.4279 LP  0  0  0  0  0  0  0  0  0  0  0  0  # atno 8637 bound_to 758 
  -38.2335  -17.4372  -17.3554 LP  0  0  0  0  0  0  0  0  0  0  0  0  # atno 8638 bound_to 758 
  -54.6791  -16.8857  -15.2856 LP  0  0  0  0  0  0  0  0  0  0  0  0  # atno 8642 bound_to 1023
  -54.2228  -17.8379  -14.0399 LP  0  0  0  0  0  0  0  0  0  0  0  0  # atno 8643 bound_to 1023
  -53.8299  -17.4793  -17.4221 LP  0  0  0  0  0  0  0  0  0  0  0  0  # atno 8662 bound_to 1776
  -55.1907  -16.8396  -18.0591 LP  0  0  0  0  0  0  0  0  0  0  0  0  # atno 8663 bound_to 1776
  -46.1423  -17.3159  -19.7702 LP  0  0  0  0  0  0  0  0  0  0  0  0  # atno 8672 bound_to 1819
  -44.7535  -17.2226  -18.9163 LP  0  0  0  0  0  0  0  0  0  0  0  0  # atno 8673 bound_to 1819
  -50.5305  -15.5457  -11.9938 LP  0  0  0  0  0  0  0  0  0  0  0  0  # atno 8684 bound_to 1916
  -48.9898  -15.0199  -11.8656 LP  0  0  0  0  0  0  0  0  0  0  0  0  # atno 8685 bound_to 1916
  -31.5172  -16.5445   -3.8641 LP  0  0  0  0  0  0  0  0  0  0  0  0  # atno 8712 bound_to 65  
  -31.3585  -15.0683   -3.1843 LP  0  0  0  0  0  0  0  0  0  0  0  0  # atno 8713 bound_to 65  
  -34.7469  -15.0259   -5.5755 LP  0  0  0  0  0  0  0  0  0  0  0  0  # atno 8724 bound_to 1997
  -34.5974  -15.4653   -4.0099 LP  0  0  0  0  0  0  0  0  0  0  0  0  # atno 8725 bound_to 1997
  -32.0031   -8.5358   -5.0486 LP  0  0  0  0  0  0  0  0  0  0  0  0  # atno 8747 bound_to 72  
  -31.6190   -9.0040   -3.5321 LP  0  0  0  0  0  0  0  0  0  0  0  0  # atno 8748 bound_to 72  
  -32.4127   -8.4260   -6.0885 LP  0  0  0  0  0  0  0  0  0  0  0  0  # atno 8749 bound_to 100 
  -33.3178   -7.3607   -5.2443 LP  0  0  0  0  0  0  0  0  0  0  0  0  # atno 8750 bound_to 100 
  -34.9854   -7.0441   -1.1320 LP  0  0  0  0  0  0  0  0  0  0  0  0  # atno 8754 bound_to 202 
  -35.6314   -7.4538   -2.5748 LP  0  0  0  0  0  0  0  0  0  0  0  0  # atno 8755 bound_to 202 
  -54.5347  -14.5155   -8.1359 LP  0  0  0  0  0  0  0  0  0  0  0  0  # atno 8775 bound_to 1065
  -53.7941  -15.9703   -8.0950 LP  0  0  0  0  0  0  0  0  0  0  0  0  # atno 8776 bound_to 1065
  -48.9018  -19.9789   -1.3322 LP  0  0  0  0  0  0  0  0  0  0  0  0  # atno 8779 bound_to 2347
  -49.4910  -21.4520   -1.7189 LP  0  0  0  0  0  0  0  0  0  0  0  0  # atno 8780 bound_to 2347
  -31.2548   -9.7878   -9.0518 LP  0  0  0  0  0  0  0  0  0  0  0  0  # atno 8787 bound_to 380 
  -30.4487   -8.4425   -9.5067 LP  0  0  0  0  0  0  0  0  0  0  0  0  # atno 8788 bound_to 380 

$$$$
