unknown|11k_best|sdf|8297|dock4
  -GOLD-   3 721 1 53D 1   1.00000     0.00000

 32 35  0  0  0  0  0  0  0  0  1 V2000
  -44.4443  -17.9212  -14.9916 C   0  0  0  0  0  0  0  0  0  0  0  0
  -45.3322  -16.7178  -15.0292 C   0  0  0  0  0  0  0  0  0  0  0  0
  -45.3788  -15.7274  -14.0561 C   0  0  0  0  0  0  0  0  0  0  0  0
  -46.4707  -14.9021  -14.2964 C   0  0  0  0  0  0  0  0  0  0  0  0
  -47.0048  -13.8373  -13.4378 C   0  0  0  0  0  0  0  0  0  0  0  0
  -47.2930  -12.7532  -14.0295 O   0  0  0  0  0  0  0  0  0  0  0  0
  -46.3590  -13.6839  -12.0993 C   0  0  0  0  0  0  0  0  0  0  0  0
  -47.2098  -14.0488  -11.0442 O   0  0  0  0  0  0  0  0  0  0  0  0
  -48.2782  -13.2347  -10.6769 C   0  0  0  0  0  0  0  0  0  0  0  0
  -48.4474  -12.2042  -11.3961 O   0  0  0  0  0  0  0  0  0  0  0  0
  -49.3400  -13.7229   -9.7880 C   0  0  0  0  0  0  0  0  0  0  0  0
  -49.2460  -14.7754   -8.8870 C   0  0  0  0  0  0  0  0  0  0  0  0
  -48.1478  -15.7858   -8.9531 C   0  0  0  0  0  0  0  0  0  0  0  0
  -50.3722  -14.7903   -8.1705 N   0  0  0  0  0  0  0  0  0  0  0  0
  -50.9750  -13.6076   -8.2625 N   0  0  0  0  0  0  0  0  0  0  0  0
  -51.6663  -12.9038   -7.1857 C   0  0  0  0  0  0  0  0  0  0  0  0
  -50.6885  -12.4518   -6.1474 C   0  0  0  0  0  0  0  0  0  0  0  0
  -49.8662  -11.3799   -6.4718 C   0  0  0  0  0  0  0  0  0  0  0  0
  -48.5432  -11.3132   -6.0588 C   0  0  0  0  0  0  0  0  0  0  0  0
  -48.0225  -12.3083   -5.2545 C   0  0  0  0  0  0  0  0  0  0  0  0
  -48.8224  -13.3687   -4.8976 C   0  0  0  0  0  0  0  0  0  0  0  0
  -50.1799  -13.3216   -5.1907 C   0  0  0  0  0  0  0  0  0  0  0  0
  -50.4535  -13.0114   -9.3584 C   0  0  0  0  0  0  0  0  0  0  0  0
  -51.1058  -11.9195  -10.1055 C   0  0  0  0  0  0  0  0  0  0  0  0
  -47.1365  -15.5198  -15.3453 C   0  0  0  0  0  0  0  0  0  0  0  0
  -48.2009  -14.8716  -16.1495 C   0  0  0  0  0  0  0  0  0  0  0  0
  -46.5098  -16.6754  -15.6716 N   0  0  0  0  0  0  0  0  0  0  0  0
  -47.0839  -17.7625  -16.3996 C   0  0  0  0  0  0  0  0  0  0  0  0
  -46.4766  -18.8831  -16.8625 N   0  0  0  0  0  0  0  0  0  0  0  0
  -47.2995  -19.9308  -16.8431 C   0  0  0  0  0  0  0  0  0  0  0  0
  -48.5034  -19.6462  -17.4796 C   0  0  0  0  0  0  0  0  0  0  0  0
  -48.6456  -17.9809  -17.0783 S   0  0  0  0  0  0  0  0  0  0  0  0
  1  2  1  0  0  0  0
  2  3  2  0  0  0  0
  3  4  1  0  0  0  0
  4  5  1  0  0  0  0
  5  6  2  0  0  0  0
  5  7  1  0  0  0  0
  7  8  1  0  0  0  0
  8  9  1  0  0  0  0
  9 10  2  0  0  0  0
  9 11  1  0  0  0  0
 11 12  1  0  0  0  0
 12 13  1  0  0  0  0
 12 14  2  0  0  0  0
 14 15  1  0  0  0  0
 15 16  1  0  0  0  0
 16 17  1  0  0  0  0
 17 18  2  0  0  0  0
 18 19  1  0  0  0  0
 19 20  2  0  0  0  0
 20 21  1  0  0  0  0
 21 22  2  0  0  0  0
 15 23  1  0  0  0  0
 23 24  1  0  0  0  0
  4 25  2  0  0  0  0
 25 26  1  0  0  0  0
 25 27  1  0  0  0  0
 27 28  1  0  0  0  0
 28 29  2  0  0  0  0
 29 30  1  0  0  0  0
 30 31  2  0  0  0  0
 31 32  1  0  0  0  0
 27  2  1  0  0  0  0
 32 28  1  0  0  0  0
 23 11  2  0  0  0  0
 22 17  1  0  0  0  0
M  END
>  <zinc_id>  (297) 
ZINC000009125755

>  <smiles>  (297) 
Cc1nn(Cc2ccccc2)c(C)c1C(=O)OCC(=O)c1cc(C)n(-c2nccs2)c1C

>  <source_line>  (297) 
297

>  <source_data>  (297) 
ZINC000009125755

>  <source_name>  (297) 


>  <source_label>  (297) 
ZINC000009125755

>  <found_by>  (297) 
ZINC

> <Gold.Version>
5.8.1

> <Gold.Id.Protein>
ID|ID_protein|mol2

> <Gold.Goldscore.Fitness>
62.4976

> <Gold.Goldscore.Internal.Vdw>
4.4798

> <Gold.Goldscore.Internal.Torsion>
-5.1455

> <Gold.Goldscore.External.Vdw>
42.0661

> <Gold.Goldscore.Internal.HBond>
0.0000

> <Gold.Goldscore.External.HBond>
8.0389

> <Gold.Goldscore.Internal.Correction>
2.7165

> <Gold.Goldscore.Hbonds>
donor molecule, donor type, donor heavy atom, donor atom, acceptor molecule, acceptor atom, score
      P1  H   441  4839       L1    10  1.00
      P1  H   441  4841       L1     6  0.15
      P1  H  1819  6078       L1    29  0.54
      P1  H  1916  6166       L1     6  0.03

> <Gold.Goldscore.Internal.Vdw.Weighted>
4.4798

> <Gold.Goldscore.Internal.Torsion.Weighted>
-5.1455

> <Gold.Goldscore.External.Vdw.Weighted>
57.8409

> <Gold.Goldscore.Internal.HBond.Weighted>
0.0000

> <Gold.Goldscore.External.HBond.Weighted>
8.0389

> <Gold.Goldscore.Internal.Correction.Weighted>
2.7165

> <Gold.Protein.RotatedTorsions>
[ 4464  112  111  109 ] final  -36.60 input   60.00 | X-H torsion
[ 4839  441  440  439 ] final -116.34 input   60.00 | X-H torsion
[ 4985  758  757  756 ] final  -84.86 input   60.00 | X-H torsion
[ 5271 1023 1022 1020 ] final  155.98 input   60.00 | X-H torsion
[ 6036 1776 1775 1774 ] final  -42.61 input   60.00 | X-H torsion
[ 6078 1819 1818 1817 ] final -162.22 input   60.00 | X-H torsion
[ 6166 1916 1915 1913 ] final  -44.75 input   60.00 | X-H torsion
[ 4818   65   64   63 ] final  -14.65 input   60.00 | X-H torsion
[ 6268 1997 1996 1994 ] final  109.84 input   60.00 | X-H torsion
[ 8592   72   71   70 ] final   29.43 input   60.00 | X-H torsion
[ 4356  100   99   97 ] final -114.75 input   60.00 | X-H torsion
[ 8510  202  201  200 ] final   -7.45 input   60.00 | X-H torsion
[ 5330 1065 1064 1063 ] final   92.63 input   60.00 | X-H torsion
[ 6640 2347 2346 2344 ] final -164.88 input   60.00 | X-H torsion
[ 4452  380  379  378 ] final  151.83 input   60.00 | X-H torsion
[ 4500  391  390  389 ] final   -8.51 input   60.00 | X-H torsion

> <Gold.Protein.ActiveResidues>
 THR8    THR9    PRO10   ILE11   TYR12   TYR13   VAL14   ASN15   ALA16   HIS19  
 HIS22   SER25   VAL29   MET46   THR47   GLY48   THR49   ASP50   GLU51   HIS52  
 GLY53   GLN54   LYS55   VAL56   ALA57   GLU58   THR71   PHE78   ILE93   THR95  
 THR96   HIS100  GLU101  VAL104  TRP108  TYR126  VAL128  SER129  ASP130  GLU131 
 SER132  LEU210  SER211  ILE212  SER213  ARG214  LYS215  ARG216  SER218  VAL219 
 MET220  ASN221  TRP222  SER223  ILE224  PRO225  VAL226  HIS232  CYS233  ILE234 
 TYR235  VAL236  TRP237  LEU238  ASP239  ALA240  LEU241  PHE242  ASN243  TYR244 
 TYR245  THR246  HIS275  VAL276  VAL277  GLY278  LYS279  ASP280  ILE281  LEU282 
 LYS283  PHE284  HIS285  ALA286  ILE287  TYR288  TRP289  PRO290  PHE292  LEU304 
 TRP309 

> <Gold.Protein.RotatedAtoms>
  -32.3464   -6.6777   -6.1080 H   0  0  0  0  0  0  0  0  0  0  0  0  # atno 4356 bound_to 100 
  -30.3408   -8.3620   -8.3062 H   0  0  0  0  0  0  0  0  0  0  0  0  # atno 4452 bound_to 380 
  -44.7279  -11.5089  -16.4552 H   0  0  0  0  0  0  0  0  0  0  0  0  # atno 4464 bound_to 112 
  -34.2168  -11.2619  -15.8717 H   0  0  0  0  0  0  0  0  0  0  0  0  # atno 4500 bound_to 391 
  -30.5910  -15.5148   -2.6025 H   0  0  0  0  0  0  0  0  0  0  0  0  # atno 4818 bound_to 65  
  -48.6247  -11.3540  -12.7081 H   0  0  0  0  0  0  0  0  0  0  0  0  # atno 4839 bound_to 441 
  -49.4465  -10.8410  -14.0531 H   0  0  0  0  0  0  0  0  0  0  0  0  # atno 4840 bound_to 441 
  -47.9047  -11.4318  -14.1990 H   0  0  0  0  0  0  0  0  0  0  0  0  # atno 4841 bound_to 441 
  -38.2696  -17.4154  -17.3268 H   0  0  0  0  0  0  0  0  0  0  0  0  # atno 4985 bound_to 758 
  -54.7063  -16.7583  -15.2480 H   0  0  0  0  0  0  0  0  0  0  0  0  # atno 5271 bound_to 1023
  -54.5818  -14.4791   -8.0207 H   0  0  0  0  0  0  0  0  0  0  0  0  # atno 5330 bound_to 1065
  -53.5607  -16.3086  -18.3131 H   0  0  0  0  0  0  0  0  0  0  0  0  # atno 6036 bound_to 1776
  -46.0306  -18.1236  -18.3888 H   0  0  0  0  0  0  0  0  0  0  0  0  # atno 6078 bound_to 1819
  -49.2443  -15.0270  -12.1610 H   0  0  0  0  0  0  0  0  0  0  0  0  # atno 6166 bound_to 1916
  -35.5200  -15.5024   -5.6461 H   0  0  0  0  0  0  0  0  0  0  0  0  # atno 6268 bound_to 1997
  -49.0087  -19.7582   -2.3595 H   0  0  0  0  0  0  0  0  0  0  0  0  # atno 6640 bound_to 2347
  -34.9298   -6.2914   -1.2896 H   0  0  0  0  0  0  0  0  0  0  0  0  # atno 8510 bound_to 202 
  -32.2621   -9.5596   -3.4978 H   0  0  0  0  0  0  0  0  0  0  0  0  # atno 8592 bound_to 72  
  -45.7389  -10.2373  -16.3607 LP  0  0  0  0  0  0  0  0  0  0  0  0  # atno 8618 bound_to 112 
  -45.9459  -11.5236  -15.3763 LP  0  0  0  0  0  0  0  0  0  0  0  0  # atno 8619 bound_to 112 
  -38.4059  -17.5331  -15.7095 LP  0  0  0  0  0  0  0  0  0  0  0  0  # atno 8637 bound_to 758 
  -37.1445  -18.2292  -16.4782 LP  0  0  0  0  0  0  0  0  0  0  0  0  # atno 8638 bound_to 758 
  -54.2350  -17.8808  -14.1682 LP  0  0  0  0  0  0  0  0  0  0  0  0  # atno 8642 bound_to 1023
  -54.5266  -16.3490  -13.6833 LP  0  0  0  0  0  0  0  0  0  0  0  0  # atno 8643 bound_to 1023
  -54.0538  -17.5527  -17.3873 LP  0  0  0  0  0  0  0  0  0  0  0  0  # atno 8662 bound_to 1776
  -55.1472  -16.6529  -18.2006 LP  0  0  0  0  0  0  0  0  0  0  0  0  # atno 8663 bound_to 1776
  -46.1071  -17.2910  -19.7849 LP  0  0  0  0  0  0  0  0  0  0  0  0  # atno 8672 bound_to 1819
  -44.7505  -17.2455  -18.8770 LP  0  0  0  0  0  0  0  0  0  0  0  0  # atno 8673 bound_to 1819
  -49.3770  -15.5356  -10.6210 LP  0  0  0  0  0  0  0  0  0  0  0  0  # atno 8684 bound_to 1916
  -50.6386  -15.6896  -11.6463 LP  0  0  0  0  0  0  0  0  0  0  0  0  # atno 8685 bound_to 1916
  -30.9287  -16.8840   -3.4145 LP  0  0  0  0  0  0  0  0  0  0  0  0  # atno 8712 bound_to 65  
  -31.7607  -15.5156   -3.7337 LP  0  0  0  0  0  0  0  0  0  0  0  0  # atno 8713 bound_to 65  
  -34.2694  -15.0077   -4.7300 LP  0  0  0  0  0  0  0  0  0  0  0  0  # atno 8724 bound_to 1997
  -35.4235  -15.9697   -4.0903 LP  0  0  0  0  0  0  0  0  0  0  0  0  # atno 8725 bound_to 1997
  -32.7812   -9.2081   -4.9994 LP  0  0  0  0  0  0  0  0  0  0  0  0  # atno 8747 bound_to 72  
  -31.4764   -8.4433   -4.3835 LP  0  0  0  0  0  0  0  0  0  0  0  0  # atno 8748 bound_to 72  
  -32.2259   -8.2940   -6.2539 LP  0  0  0  0  0  0  0  0  0  0  0  0  # atno 8749 bound_to 100 
  -33.3290   -7.6428   -5.2412 LP  0  0  0  0  0  0  0  0  0  0  0  0  # atno 8750 bound_to 100 
  -35.3979   -7.7294   -1.8906 LP  0  0  0  0  0  0  0  0  0  0  0  0  # atno 8754 bound_to 202 
  -35.5516   -6.3758   -2.7911 LP  0  0  0  0  0  0  0  0  0  0  0  0  # atno 8755 bound_to 202 
  -53.8071  -15.8986   -8.2025 LP  0  0  0  0  0  0  0  0  0  0  0  0  # atno 8775 bound_to 1065
  -54.3648  -15.4517   -6.7342 LP  0  0  0  0  0  0  0  0  0  0  0  0  # atno 8776 bound_to 1065
  -49.1120  -20.7210   -1.0517 LP  0  0  0  0  0  0  0  0  0  0  0  0  # atno 8779 bound_to 2347
  -49.5743  -21.2760   -2.5162 LP  0  0  0  0  0  0  0  0  0  0  0  0  # atno 8780 bound_to 2347
  -31.1970   -9.7419   -8.4113 LP  0  0  0  0  0  0  0  0  0  0  0  0  # atno 8787 bound_to 380 
  -30.7664   -8.9396   -9.7668 LP  0  0  0  0  0  0  0  0  0  0  0  0  # atno 8788 bound_to 380 

$$$$
