unknown|11k_best|sdf|8290|dock9
  -GOLD-   3 721 0573D 1   1.00000     0.00000

 29 32  0  0  0  0  0  0  0  0  1 V2000
  -47.6777  -19.7444  -17.2534 C   0  0  0  0  0  0  0  0  0  0  0  0
  -47.7700  -18.3392  -17.0694 O   0  0  0  0  0  0  0  0  0  0  0  0
  -46.7435  -17.6460  -16.4353 C   0  0  0  0  0  0  0  0  0  0  0  0
  -45.6549  -18.3740  -15.9715 C   0  0  0  0  0  0  0  0  0  0  0  0
  -44.6201  -17.6681  -15.3735 C   0  0  0  0  0  0  0  0  0  0  0  0
  -44.8426  -16.4009  -14.8490 C   0  0  0  0  0  0  0  0  0  0  0  0
  -46.0529  -15.7610  -15.0835 C   0  0  0  0  0  0  0  0  0  0  0  0
  -46.5724  -14.7574  -14.1477 C   0  0  0  0  0  0  0  0  0  0  0  0
  -46.4653  -14.7376  -12.7634 C   0  0  0  0  0  0  0  0  0  0  0  0
  -46.3962  -13.4296  -12.3506 C   0  0  0  0  0  0  0  0  0  0  0  0
  -46.2040  -12.8692  -10.9829 C   0  0  0  0  0  0  0  0  0  0  0  0
  -47.4029  -13.3382  -10.1675 C   0  0  0  0  0  0  0  0  0  0  0  0
  -47.6198  -14.6704  -10.4859 O   0  0  0  0  0  0  0  0  0  0  0  0
  -48.5592  -12.4458  -10.5475 C   0  0  0  0  0  0  0  0  0  0  0  0
  -49.7168  -12.5411   -9.5909 C   0  0  0  0  0  0  0  0  0  0  0  0
  -49.2765  -12.6710   -8.2123 N   0  0  0  0  0  0  0  0  0  0  0  0
  -49.2310  -14.0780   -7.9063 C   0  0  0  0  0  0  0  0  0  0  0  0
  -50.5576  -14.6062   -7.4606 C   0  0  0  0  0  0  0  0  0  0  0  0
  -50.9232  -14.6147   -6.1293 C   0  0  0  0  0  0  0  0  0  0  0  0
  -51.6523  -15.7204   -5.8502 N   0  0  0  0  0  0  0  0  0  0  0  0
  -51.7856  -16.3866   -7.0193 C   0  0  0  0  0  0  0  0  0  0  0  0
  -52.7258  -17.5062   -7.2137 C   0  0  0  0  0  0  0  0  0  0  0  0
  -51.0627  -15.7547   -7.9699 N   0  0  0  0  0  0  0  0  0  0  0  0
  -50.6776  -16.3982   -9.2088 C   0  0  0  0  0  0  0  0  0  0  0  0
  -47.9223  -12.1547   -8.0255 C   0  0  0  0  0  0  0  0  0  0  0  0
  -47.0027  -13.1593   -8.7075 C   0  0  0  0  0  0  0  0  0  0  0  0
  -46.5734  -12.7094  -13.4216 O   0  0  0  0  0  0  0  0  0  0  0  0
  -46.6436  -13.4502  -14.4900 N   0  0  0  0  0  0  0  0  0  0  0  0
  -46.8405  -16.3140  -16.0847 C   0  0  0  0  0  0  0  0  0  0  0  0
  1  2  1  0  0  0  0
  2  3  1  0  0  0  0
  3  4  2  0  0  0  0
  4  5  1  0  0  0  0
  5  6  2  0  0  0  0
  6  7  1  0  0  0  0
  7  8  1  0  0  0  0
  8  9  1  0  0  0  0
  9 10  2  0  0  0  0
 10 11  1  0  0  0  0
 11 12  1  0  0  0  0
 12 13  1  0  0  0  0
 12 14  1  0  0  0  0
 14 15  1  0  0  0  0
 15 16  1  0  0  0  0
 16 17  1  0  0  0  0
 17 18  1  0  0  0  0
 18 19  2  0  0  0  0
 19 20  1  0  0  0  0
 20 21  2  0  0  0  0
 21 22  1  0  0  0  0
 21 23  1  0  0  0  0
 23 24  1  0  0  0  0
 16 25  1  0  0  0  0
 25 26  1  0  0  0  0
 10 27  1  0  0  0  0
 27 28  1  0  0  0  0
  7 29  2  0  0  0  0
 29  3  1  0  0  0  0
 28  8  2  0  0  0  0
 26 12  1  0  0  0  0
 23 18  1  0  0  0  0
M  END
>  <zinc_id>  (290) 
ZINC000012438883

>  <smiles>  (290) 
COc1cccc(-c2cc(CC3(O)CCN(Cc4cnc(C)n4C)CC3)on2)c1

>  <source_line>  (290) 
290

>  <source_data>  (290) 
ZINC000012438883

>  <source_name>  (290) 


>  <source_label>  (290) 
ZINC000012438883

>  <found_by>  (290) 
ZINC

> <Gold.Version>
5.8.1

> <Gold.Id.Protein>
ID|ID_protein|mol2

> <Gold.Goldscore.Fitness>
63.8202

> <Gold.Goldscore.Internal.Vdw>
0.2889

> <Gold.Goldscore.Internal.Torsion>
-4.4741

> <Gold.Goldscore.External.Vdw>
38.9372

> <Gold.Goldscore.Internal.HBond>
0.0000

> <Gold.Goldscore.External.HBond>
15.3805

> <Gold.Goldscore.Internal.Correction>
0.9137

> <Gold.Goldscore.Hbonds>
donor molecule, donor type, donor heavy atom, donor atom, acceptor molecule, acceptor atom, score
      P1  H   112  4464       L1    27  0.25
      P1  H   112  4464       L1    28  0.45
      P1  H   441  4840       L1    27  1.00
      P1  H  1819  6078       L1     2  0.99
      P1  H  1916  6166       L1    13  1.00

> <Gold.Goldscore.Internal.Vdw.Weighted>
0.2889

> <Gold.Goldscore.Internal.Torsion.Weighted>
-4.4741

> <Gold.Goldscore.External.Vdw.Weighted>
53.5387

> <Gold.Goldscore.Internal.HBond.Weighted>
0.0000

> <Gold.Goldscore.External.HBond.Weighted>
15.3805

> <Gold.Goldscore.Internal.Correction.Weighted>
0.9137

> <Gold.Protein.RotatedTorsions>
[ 4464  112  111  109 ] final   70.47 input   60.00 | X-H torsion
[ 4839  441  440  439 ] final   53.28 input   60.00 | X-H torsion
[ 4985  758  757  756 ] final   28.63 input   60.00 | X-H torsion
[ 5271 1023 1022 1020 ] final   59.89 input   60.00 | X-H torsion
[ 6036 1776 1775 1774 ] final   28.17 input   60.00 | X-H torsion
[ 6078 1819 1818 1817 ] final  178.55 input   60.00 | X-H torsion
[ 6166 1916 1915 1913 ] final -116.24 input   60.00 | X-H torsion
[ 4818   65   64   63 ] final  161.36 input   60.00 | X-H torsion
[ 6268 1997 1996 1994 ] final -138.07 input   60.00 | X-H torsion
[ 8592   72   71   70 ] final  -47.78 input   60.00 | X-H torsion
[ 4356  100   99   97 ] final  153.46 input   60.00 | X-H torsion
[ 8510  202  201  200 ] final  -30.41 input   60.00 | X-H torsion
[ 5330 1065 1064 1063 ] final   15.05 input   60.00 | X-H torsion
[ 6640 2347 2346 2344 ] final  171.54 input   60.00 | X-H torsion
[ 4452  380  379  378 ] final  149.84 input   60.00 | X-H torsion
[ 4500  391  390  389 ] final  -64.09 input   60.00 | X-H torsion

> <Gold.Protein.ActiveResidues>
 THR8    THR9    PRO10   ILE11   TYR12   TYR13   VAL14   ASN15   ALA16   HIS19  
 HIS22   SER25   VAL29   MET46   THR47   GLY48   THR49   ASP50   GLU51   HIS52  
 GLY53   GLN54   LYS55   VAL56   ALA57   GLU58   THR71   PHE78   ILE93   THR95  
 THR96   HIS100  GLU101  VAL104  TRP108  TYR126  VAL128  SER129  ASP130  GLU131 
 SER132  LEU210  SER211  ILE212  SER213  ARG214  LYS215  ARG216  SER218  VAL219 
 MET220  ASN221  TRP222  SER223  ILE224  PRO225  VAL226  HIS232  CYS233  ILE234 
 TYR235  VAL236  TRP237  LEU238  ASP239  ALA240  LEU241  PHE242  ASN243  TYR244 
 TYR245  THR246  HIS275  VAL276  VAL277  GLY278  LYS279  ASP280  ILE281  LEU282 
 LYS283  PHE284  HIS285  ALA286  ILE287  TYR288  TRP289  PRO290  PHE292  LEU304 
 TRP309 

> <Gold.Protein.RotatedAtoms>
  -32.0110   -7.9362   -6.4423 H   0  0  0  0  0  0  0  0  0  0  0  0  # atno 4356 bound_to 100 
  -30.3497   -8.3784   -8.2796 H   0  0  0  0  0  0  0  0  0  0  0  0  # atno 4452 bound_to 380 
  -45.7989  -11.6724  -15.4096 H   0  0  0  0  0  0  0  0  0  0  0  0  # atno 4464 bound_to 112 
  -33.6597  -10.5980  -15.9765 H   0  0  0  0  0  0  0  0  0  0  0  0  # atno 4500 bound_to 391 
  -31.6235  -16.3696   -3.9082 H   0  0  0  0  0  0  0  0  0  0  0  0  # atno 4818 bound_to 65  
  -48.8524  -11.0048  -14.5681 H   0  0  0  0  0  0  0  0  0  0  0  0  # atno 4839 bound_to 441 
  -47.8088  -11.5789  -13.4154 H   0  0  0  0  0  0  0  0  0  0  0  0  # atno 4840 bound_to 441 
  -49.3147  -11.0431  -12.9768 H   0  0  0  0  0  0  0  0  0  0  0  0  # atno 4841 bound_to 441 
  -37.1453  -18.2128  -16.5839 H   0  0  0  0  0  0  0  0  0  0  0  0  # atno 4985 bound_to 758 
  -54.3022  -17.8944  -14.5514 H   0  0  0  0  0  0  0  0  0  0  0  0  # atno 5271 bound_to 1023
  -54.0118  -15.3542   -8.5547 H   0  0  0  0  0  0  0  0  0  0  0  0  # atno 5330 bound_to 1065
  -54.6165  -16.1764  -18.5227 H   0  0  0  0  0  0  0  0  0  0  0  0  # atno 6036 bound_to 1776
  -46.2644  -18.1005  -18.5953 H   0  0  0  0  0  0  0  0  0  0  0  0  # atno 6078 bound_to 1819
  -48.9047  -15.2100  -11.1375 H   0  0  0  0  0  0  0  0  0  0  0  0  # atno 6166 bound_to 1916
  -35.5156  -16.0026   -4.1758 H   0  0  0  0  0  0  0  0  0  0  0  0  # atno 6268 bound_to 1997
  -48.9212  -19.6999   -1.9917 H   0  0  0  0  0  0  0  0  0  0  0  0  # atno 6640 bound_to 2347
  -34.9240   -6.6343   -1.1437 H   0  0  0  0  0  0  0  0  0  0  0  0  # atno 8510 bound_to 202 
  -32.9218   -9.6080   -4.4607 H   0  0  0  0  0  0  0  0  0  0  0  0  # atno 8592 bound_to 72  
  -44.7162  -11.3359  -16.5768 LP  0  0  0  0  0  0  0  0  0  0  0  0  # atno 8618 bound_to 112 
  -45.8900  -10.2604  -16.2133 LP  0  0  0  0  0  0  0  0  0  0  0  0  # atno 8619 bound_to 112 
  -38.3536  -17.3716  -17.2771 LP  0  0  0  0  0  0  0  0  0  0  0  0  # atno 8637 bound_to 758 
  -38.3290  -17.5877  -15.6586 LP  0  0  0  0  0  0  0  0  0  0  0  0  # atno 8638 bound_to 758 
  -54.4133  -16.6676  -13.4879 LP  0  0  0  0  0  0  0  0  0  0  0  0  # atno 8642 bound_to 1023
  -54.7552  -16.4182  -15.0651 LP  0  0  0  0  0  0  0  0  0  0  0  0  # atno 8643 bound_to 1023
  -53.3195  -16.8817  -17.8379 LP  0  0  0  0  0  0  0  0  0  0  0  0  # atno 8662 bound_to 1776
  -54.8183  -17.4570  -17.5390 LP  0  0  0  0  0  0  0  0  0  0  0  0  # atno 8663 bound_to 1776
  -45.8364  -17.1383  -19.8359 LP  0  0  0  0  0  0  0  0  0  0  0  0  # atno 8672 bound_to 1819
  -44.7857  -17.4214  -18.6182 LP  0  0  0  0  0  0  0  0  0  0  0  0  # atno 8673 bound_to 1819
  -50.3980  -15.8193  -10.9215 LP  0  0  0  0  0  0  0  0  0  0  0  0  # atno 8684 bound_to 1916
  -49.9595  -15.2216  -12.3765 LP  0  0  0  0  0  0  0  0  0  0  0  0  # atno 8685 bound_to 1916
  -31.2095  -15.0593   -3.0366 LP  0  0  0  0  0  0  0  0  0  0  0  0  # atno 8712 bound_to 65  
  -30.4401  -16.4796   -2.7966 LP  0  0  0  0  0  0  0  0  0  0  0  0  # atno 8713 bound_to 65  
  -35.4283  -15.4240   -5.6942 LP  0  0  0  0  0  0  0  0  0  0  0  0  # atno 8724 bound_to 1997
  -34.2690  -15.0496   -4.6068 LP  0  0  0  0  0  0  0  0  0  0  0  0  # atno 8725 bound_to 1997
  -31.8648   -8.4718   -4.9505 LP  0  0  0  0  0  0  0  0  0  0  0  0  # atno 8747 bound_to 72  
  -31.7283   -9.1309   -3.4627 LP  0  0  0  0  0  0  0  0  0  0  0  0  # atno 8748 bound_to 72  
  -33.2144   -8.0727   -5.3554 LP  0  0  0  0  0  0  0  0  0  0  0  0  # atno 8749 bound_to 100 
  -32.6782   -6.5967   -5.8031 LP  0  0  0  0  0  0  0  0  0  0  0  0  # atno 8750 bound_to 100 
  -35.5297   -7.6754   -2.2378 LP  0  0  0  0  0  0  0  0  0  0  0  0  # atno 8754 bound_to 202 
  -35.4256   -6.0845   -2.5908 LP  0  0  0  0  0  0  0  0  0  0  0  0  # atno 8755 bound_to 202 
  -54.0333  -15.9606   -7.0448 LP  0  0  0  0  0  0  0  0  0  0  0  0  # atno 8775 bound_to 1065
  -54.7127  -14.5083   -7.3542 LP  0  0  0  0  0  0  0  0  0  0  0  0  # atno 8776 bound_to 1065
  -49.2525  -21.0615   -1.1645 LP  0  0  0  0  0  0  0  0  0  0  0  0  # atno 8779 bound_to 2347
  -49.5220  -20.9943   -2.7737 LP  0  0  0  0  0  0  0  0  0  0  0  0  # atno 8780 bound_to 2347
  -31.2053   -9.7531   -8.4409 LP  0  0  0  0  0  0  0  0  0  0  0  0  # atno 8787 bound_to 380 
  -30.7492   -8.9118   -9.7641 LP  0  0  0  0  0  0  0  0  0  0  0  0  # atno 8788 bound_to 380 

$$$$
