unknown|11k_best|sdf|8260|dock8
  -GOLD-   3 721 0193D 1   1.00000     0.00000

 32 34  0  0  0  0  0  0  0  0  1 V2000
  -47.7613  -19.8698  -17.4810 C   0  0  0  0  0  0  0  0  0  0  0  0
  -46.8219  -19.0247  -16.8235 O   0  0  0  0  0  0  0  0  0  0  0  0
  -47.2186  -17.8077  -16.2758 C   0  0  0  0  0  0  0  0  0  0  0  0
  -48.2486  -17.0808  -16.8532 C   0  0  0  0  0  0  0  0  0  0  0  0
  -48.6166  -15.8957  -16.2315 C   0  0  0  0  0  0  0  0  0  0  0  0
  -49.7656  -15.2066  -16.6290 O   0  0  0  0  0  0  0  0  0  0  0  0
  -50.6854  -15.8316  -17.5167 C   0  0  0  0  0  0  0  0  0  0  0  0
  -47.8304  -15.3624  -15.2192 C   0  0  0  0  0  0  0  0  0  0  0  0
  -46.5962  -15.9051  -14.9686 C   0  0  0  0  0  0  0  0  0  0  0  0
  -45.5281  -15.1777  -14.2869 C   0  0  0  0  0  0  0  0  0  0  0  0
  -44.3255  -15.1986  -14.6809 O   0  0  0  0  0  0  0  0  0  0  0  0
  -45.8894  -14.1999  -13.3727 O   0  0  0  0  0  0  0  0  0  0  0  0
  -44.9750  -13.6610  -12.4193 C   0  0  0  0  0  0  0  0  0  0  0  0
  -45.8161  -13.2413  -11.2550 C   0  0  0  0  0  0  0  0  0  0  0  0
  -46.6161  -12.2649  -11.3678 O   0  0  0  0  0  0  0  0  0  0  0  0
  -45.9166  -13.9943  -10.0635 N   0  0  0  0  0  0  0  0  0  0  0  0
  -46.9808  -13.8408   -9.1369 C   0  0  0  0  0  0  0  0  0  0  0  0
  -48.2000  -13.2718   -9.4661 C   0  0  0  0  0  0  0  0  0  0  0  0
  -49.3586  -13.7919   -8.9175 C   0  0  0  0  0  0  0  0  0  0  0  0
  -49.3592  -14.7514   -7.9315 C   0  0  0  0  0  0  0  0  0  0  0  0
  -48.1201  -15.1516   -7.4582 C   0  0  0  0  0  0  0  0  0  0  0  0
  -46.9501  -14.6146   -7.9828 C   0  0  0  0  0  0  0  0  0  0  0  0
  -45.6580  -14.7558   -7.2993 C   0  0  0  0  0  0  0  0  0  0  0  0
  -45.5739  -15.2324   -6.1270 O   0  0  0  0  0  0  0  0  0  0  0  0
  -44.4204  -14.4552   -7.9303 N   0  0  0  0  0  0  0  0  0  0  0  0
  -43.1604  -14.6289   -7.2708 C   0  0  0  0  0  0  0  0  0  0  0  0
  -42.0527  -14.6927   -8.1070 C   0  0  0  0  0  0  0  0  0  0  0  0
  -40.9460  -15.4577   -7.8295 C   0  0  0  0  0  0  0  0  0  0  0  0
  -40.9771  -16.3445   -6.7845 C   0  0  0  0  0  0  0  0  0  0  0  0
  -42.0134  -16.2193   -5.8680 C   0  0  0  0  0  0  0  0  0  0  0  0
  -43.0526  -15.3191   -6.0691 C   0  0  0  0  0  0  0  0  0  0  0  0
  -46.2338  -17.0564  -15.6463 C   0  0  0  0  0  0  0  0  0  0  0  0
  1  2  1  0  0  0  0
  2  3  1  0  0  0  0
  3  4  2  0  0  0  0
  4  5  1  0  0  0  0
  5  6  1  0  0  0  0
  6  7  1  0  0  0  0
  5  8  2  0  0  0  0
  8  9  1  0  0  0  0
  9 10  1  0  0  0  0
 10 11  2  0  0  0  0
 10 12  1  0  0  0  0
 12 13  1  0  0  0  0
 13 14  1  0  0  0  0
 14 15  2  0  0  0  0
 14 16  1  0  0  0  0
 16 17  1  0  0  0  0
 17 18  2  0  0  0  0
 18 19  1  0  0  0  0
 19 20  2  0  0  0  0
 20 21  1  0  0  0  0
 21 22  2  0  0  0  0
 22 23  1  0  0  0  0
 23 24  2  0  0  0  0
 23 25  1  0  0  0  0
 25 26  1  0  0  0  0
 26 27  2  0  0  0  0
 27 28  1  0  0  0  0
 28 29  2  0  0  0  0
 29 30  1  0  0  0  0
 30 31  2  0  0  0  0
  9 32  2  0  0  0  0
 32  3  1  0  0  0  0
 22 17  1  0  0  0  0
 31 26  1  0  0  0  0
M  END
>  <zinc_id>  (260) 
ZINC000011137694

>  <smiles>  (260) 
COc1cc(OC)cc(C(=O)OCC(=O)Nc2ccccc2C(=O)Nc2ccccc2)c1

>  <source_line>  (260) 
260

>  <source_data>  (260) 
ZINC000011137694

>  <source_name>  (260) 


>  <source_label>  (260) 
ZINC000011137694

>  <found_by>  (260) 
ZINC

> <Gold.Version>
5.8.1

> <Gold.Id.Protein>
ID|ID_protein|mol2

> <Gold.Goldscore.Fitness>
69.5402

> <Gold.Goldscore.Internal.Vdw>
0.1082

> <Gold.Goldscore.Internal.Torsion>
-11.1957

> <Gold.Goldscore.External.Vdw>
49.4803

> <Gold.Goldscore.Internal.HBond>
0.0000

> <Gold.Goldscore.External.HBond>
6.5279

> <Gold.Goldscore.Internal.Correction>
-6.0644

> <Gold.Goldscore.Hbonds>
donor molecule, donor type, donor heavy atom, donor atom, acceptor molecule, acceptor atom, score
      P1  H   426  4822       L1     6  0.53
      P1  H   441  4841       L1    15  0.58
      P1  H  1819  6078       L1     2  1.00

> <Gold.Goldscore.Internal.Vdw.Weighted>
0.1082

> <Gold.Goldscore.Internal.Torsion.Weighted>
-11.1957

> <Gold.Goldscore.External.Vdw.Weighted>
68.0354

> <Gold.Goldscore.Internal.HBond.Weighted>
0.0000

> <Gold.Goldscore.External.HBond.Weighted>
6.5279

> <Gold.Goldscore.Internal.Correction.Weighted>
-6.0644

> <Gold.Protein.RotatedTorsions>
[ 4464  112  111  109 ] final -150.69 input   60.00 | X-H torsion
[ 4839  441  440  439 ] final  -36.18 input   60.00 | X-H torsion
[ 4985  758  757  756 ] final  165.08 input   60.00 | X-H torsion
[ 5271 1023 1022 1020 ] final   44.96 input   60.00 | X-H torsion
[ 6036 1776 1775 1774 ] final  -85.68 input   60.00 | X-H torsion
[ 6078 1819 1818 1817 ] final -156.55 input   60.00 | X-H torsion
[ 6166 1916 1915 1913 ] final -122.91 input   60.00 | X-H torsion
[ 4818   65   64   63 ] final -100.54 input   60.00 | X-H torsion
[ 6268 1997 1996 1994 ] final   99.11 input   60.00 | X-H torsion
[ 8592   72   71   70 ] final  -94.69 input   60.00 | X-H torsion
[ 4356  100   99   97 ] final   -7.22 input   60.00 | X-H torsion
[ 8510  202  201  200 ] final -156.46 input   60.00 | X-H torsion
[ 5330 1065 1064 1063 ] final  -27.63 input   60.00 | X-H torsion
[ 6640 2347 2346 2344 ] final -130.12 input   60.00 | X-H torsion
[ 4452  380  379  378 ] final   94.86 input   60.00 | X-H torsion
[ 4500  391  390  389 ] final  177.65 input   60.00 | X-H torsion

> <Gold.Protein.ActiveResidues>
 THR8    THR9    PRO10   ILE11   TYR12   TYR13   VAL14   ASN15   ALA16   HIS19  
 HIS22   SER25   VAL29   MET46   THR47   GLY48   THR49   ASP50   GLU51   HIS52  
 GLY53   GLN54   LYS55   VAL56   ALA57   GLU58   THR71   PHE78   ILE93   THR95  
 THR96   HIS100  GLU101  VAL104  TRP108  TYR126  VAL128  SER129  ASP130  GLU131 
 SER132  LEU210  SER211  ILE212  SER213  ARG214  LYS215  ARG216  SER218  VAL219 
 MET220  ASN221  TRP222  SER223  ILE224  PRO225  VAL226  HIS232  CYS233  ILE234 
 TYR235  VAL236  TRP237  LEU238  ASP239  ALA240  LEU241  PHE242  ASN243  TYR244 
 TYR245  THR246  HIS275  VAL276  VAL277  GLY278  LYS279  ASP280  ILE281  LEU282 
 LYS283  PHE284  HIS285  ALA286  ILE287  TYR288  TRP289  PRO290  PHE292  LEU304 
 TRP309 

> <Gold.Protein.RotatedAtoms>
  -33.3239   -7.4386   -5.2439 H   0  0  0  0  0  0  0  0  0  0  0  0  # atno 4356 bound_to 100 
  -30.7411   -9.0442   -7.8916 H   0  0  0  0  0  0  0  0  0  0  0  0  # atno 4452 bound_to 380 
  -45.6621  -10.2462  -16.4195 H   0  0  0  0  0  0  0  0  0  0  0  0  # atno 4464 bound_to 112 
  -34.6818   -9.7733  -16.9029 H   0  0  0  0  0  0  0  0  0  0  0  0  # atno 4500 bound_to 391 
  -30.5796  -16.7199   -3.0208 H   0  0  0  0  0  0  0  0  0  0  0  0  # atno 4818 bound_to 65  
  -49.5299  -10.8977  -13.4088 H   0  0  0  0  0  0  0  0  0  0  0  0  # atno 4839 bound_to 441 
  -48.3837  -11.1903  -14.5698 H   0  0  0  0  0  0  0  0  0  0  0  0  # atno 4840 bound_to 441 
  -48.0624  -11.5388  -12.9816 H   0  0  0  0  0  0  0  0  0  0  0  0  # atno 4841 bound_to 441 
  -38.5062  -17.4549  -15.8113 H   0  0  0  0  0  0  0  0  0  0  0  0  # atno 4985 bound_to 758 
  -54.2581  -17.9009  -14.3122 H   0  0  0  0  0  0  0  0  0  0  0  0  # atno 5271 bound_to 1023
  -53.8117  -15.8977   -8.1958 H   0  0  0  0  0  0  0  0  0  0  0  0  # atno 5330 bound_to 1065
  -53.3189  -16.8035  -17.9020 H   0  0  0  0  0  0  0  0  0  0  0  0  # atno 6036 bound_to 1776
  -45.9518  -18.1182  -18.3405 H   0  0  0  0  0  0  0  0  0  0  0  0  # atno 6078 bound_to 1819
  -48.9397  -15.2513  -11.0429 H   0  0  0  0  0  0  0  0  0  0  0  0  # atno 6166 bound_to 1916
  -35.3889  -15.3996   -5.7000 H   0  0  0  0  0  0  0  0  0  0  0  0  # atno 6268 bound_to 1997
  -49.1993  -20.0870   -2.7700 H   0  0  0  0  0  0  0  0  0  0  0  0  # atno 6640 bound_to 2347
  -35.5549   -7.6316   -2.3234 H   0  0  0  0  0  0  0  0  0  0  0  0  # atno 8510 bound_to 202 
  -32.7414   -9.1623   -5.0303 H   0  0  0  0  0  0  0  0  0  0  0  0  # atno 8592 bound_to 72  
  -46.0037  -11.4455  -15.3740 LP  0  0  0  0  0  0  0  0  0  0  0  0  # atno 8618 bound_to 112 
  -44.7403  -11.5871  -16.3990 LP  0  0  0  0  0  0  0  0  0  0  0  0  # atno 8619 bound_to 112 
  -37.1697  -18.2333  -16.3169 LP  0  0  0  0  0  0  0  0  0  0  0  0  # atno 8637 bound_to 758 
  -38.1424  -17.4892  -17.3970 LP  0  0  0  0  0  0  0  0  0  0  0  0  # atno 8638 bound_to 758 
  -54.4838  -16.4582  -13.5939 LP  0  0  0  0  0  0  0  0  0  0  0  0  # atno 8642 bound_to 1023
  -54.7292  -16.6211  -15.2001 LP  0  0  0  0  0  0  0  0  0  0  0  0  # atno 8643 bound_to 1023
  -54.7346  -17.4974  -17.4990 LP  0  0  0  0  0  0  0  0  0  0  0  0  # atno 8662 bound_to 1776
  -54.7098  -16.2098  -18.5030 LP  0  0  0  0  0  0  0  0  0  0  0  0  # atno 8663 bound_to 1776
  -46.1779  -17.3425  -19.7530 LP  0  0  0  0  0  0  0  0  0  0  0  0  # atno 8672 bound_to 1819
  -44.7589  -17.1994  -18.9576 LP  0  0  0  0  0  0  0  0  0  0  0  0  # atno 8673 bound_to 1819
  -50.4648  -15.8176  -11.0087 LP  0  0  0  0  0  0  0  0  0  0  0  0  # atno 8684 bound_to 1916
  -49.8575  -15.1818  -12.3847 LP  0  0  0  0  0  0  0  0  0  0  0  0  # atno 8685 bound_to 1916
  -31.7558  -16.0381   -3.9151 LP  0  0  0  0  0  0  0  0  0  0  0  0  # atno 8712 bound_to 65  
  -30.9451  -15.1480   -2.8118 LP  0  0  0  0  0  0  0  0  0  0  0  0  # atno 8713 bound_to 65  
  -34.2726  -15.0666   -4.5638 LP  0  0  0  0  0  0  0  0  0  0  0  0  # atno 8724 bound_to 1997
  -35.5523  -16.0143   -4.2022 LP  0  0  0  0  0  0  0  0  0  0  0  0  # atno 8725 bound_to 1997
  -31.4567   -8.4596   -4.3206 LP  0  0  0  0  0  0  0  0  0  0  0  0  # atno 8747 bound_to 72  
  -32.3181   -9.5919   -3.5189 LP  0  0  0  0  0  0  0  0  0  0  0  0  # atno 8748 bound_to 72  
  -32.2121   -6.7734   -6.2285 LP  0  0  0  0  0  0  0  0  0  0  0  0  # atno 8749 bound_to 100 
  -32.3585   -8.3972   -6.1367 LP  0  0  0  0  0  0  0  0  0  0  0  0  # atno 8750 bound_to 100 
  -35.3879   -6.0250   -2.5204 LP  0  0  0  0  0  0  0  0  0  0  0  0  # atno 8754 bound_to 202 
  -34.9320   -6.7305   -1.1201 LP  0  0  0  0  0  0  0  0  0  0  0  0  # atno 8755 bound_to 202 
  -54.3668  -15.4480   -6.7338 LP  0  0  0  0  0  0  0  0  0  0  0  0  # atno 8775 bound_to 1065
  -54.5807  -14.4736   -8.0266 LP  0  0  0  0  0  0  0  0  0  0  0  0  # atno 8776 bound_to 1065
  -48.9474  -20.1945   -1.1659 LP  0  0  0  0  0  0  0  0  0  0  0  0  # atno 8779 bound_to 2347
  -49.5469  -21.4714   -1.9886 LP  0  0  0  0  0  0  0  0  0  0  0  0  # atno 8780 bound_to 2347
  -31.2081   -9.6925   -9.3092 LP  0  0  0  0  0  0  0  0  0  0  0  0  # atno 8787 bound_to 380 
  -30.3521   -8.3020   -9.2865 LP  0  0  0  0  0  0  0  0  0  0  0  0  # atno 8788 bound_to 380 

$$$$
