unknown|11k_best|sdf|8318|dock2
  -GOLD-   3 721 1333D 1   1.00000     0.00000

 28 30  0  0  0  0  0  0  0  0  1 V2000
  -46.7579  -17.4141  -16.2677 C   0  0  0  0  0  0  0  0  0  0  0  0
  -45.4723  -17.7218  -16.1710 C   0  0  0  0  0  0  0  0  0  0  0  0
  -44.8660  -18.7492  -16.8840 C   0  0  0  0  0  0  0  0  0  0  0  0
  -43.4851  -18.8846  -16.8326 C   0  0  0  0  0  0  0  0  0  0  0  0
  -42.8146  -19.2372  -17.8324 O   0  0  0  0  0  0  0  0  0  0  0  0
  -42.8185  -18.3386  -15.8348 O   0  0  0  0  0  0  0  0  0  0  0  0
  -43.3530  -17.4123  -15.0639 C   0  0  0  0  0  0  0  0  0  0  0  0
  -42.6117  -16.6458  -14.1853 C   0  0  0  0  0  0  0  0  0  0  0  0
  -42.9864  -15.3346  -13.9170 C   0  0  0  0  0  0  0  0  0  0  0  0
  -44.0670  -14.7469  -14.5572 C   0  0  0  0  0  0  0  0  0  0  0  0
  -44.6247  -13.5459  -14.1048 O   0  0  0  0  0  0  0  0  0  0  0  0
  -45.9751  -13.4802  -13.7262 C   0  0  0  0  0  0  0  0  0  0  0  0
  -46.5562  -14.5574  -13.6977 O   0  0  0  0  0  0  0  0  0  0  0  0
  -46.0529  -12.5373  -12.3873 C   0  0  2  0  0  0  0  0  0  0  0  0
  -44.9345  -13.4260  -11.5110 C   0  0  0  0  0  0  0  0  0  0  0  0
  -47.2625  -13.4075  -11.7974 N   0  0  0  0  0  0  0  0  0  0  0  0
  -47.3949  -13.3446  -10.3993 C   0  0  0  0  0  0  0  0  0  0  0  0
  -48.2233  -14.1406   -9.8688 O   0  0  0  0  0  0  0  0  0  0  0  0
  -46.6140  -12.5767   -9.5508 O   0  0  0  0  0  0  0  0  0  0  0  0
  -46.7771  -12.5407   -8.1455 C   0  0  0  0  0  0  0  0  0  0  0  0
  -45.9002  -13.5811   -7.5239 C   0  0  0  0  0  0  0  0  0  0  0  0
  -45.4993  -13.4469   -6.2027 C   0  0  0  0  0  0  0  0  0  0  0  0
  -44.2929  -14.0501   -5.8668 C   0  0  0  0  0  0  0  0  0  0  0  0
  -43.9819  -15.2090   -6.5483 C   0  0  0  0  0  0  0  0  0  0  0  0
  -44.8183  -15.7009   -7.5283 C   0  0  0  0  0  0  0  0  0  0  0  0
  -45.7123  -14.8131   -8.0967 C   0  0  0  0  0  0  0  0  0  0  0  0
  -44.9437  -15.6256  -15.1697 C   0  0  0  0  0  0  0  0  0  0  0  0
  -44.6395  -16.9698  -15.3509 C   0  0  0  0  0  0  0  0  0  0  0  0
  1  2  1  0  0  0  0
  2  3  2  0  0  0  0
  3  4  1  0  0  0  0
  4  5  2  0  0  0  0
  4  6  1  0  0  0  0
  6  7  1  0  0  0  0
  7  8  2  0  0  0  0
  8  9  1  0  0  0  0
  9 10  2  0  0  0  0
 10 11  1  0  0  0  0
 11 12  1  0  0  0  0
 12 13  2  0  0  0  0
 14 12  1  0  0  0  0
 14 15  1  0  0  0  0
 14 16  1  0  0  0  0
 16 17  1  0  0  0  0
 17 18  2  0  0  0  0
 17 19  1  0  0  0  0
 19 20  1  0  0  0  0
 20 21  1  0  0  0  0
 21 22  2  0  0  0  0
 22 23  1  0  0  0  0
 23 24  2  0  0  0  0
 24 25  1  0  0  0  0
 25 26  2  0  0  0  0
 10 27  1  0  0  0  0
 27 28  2  0  0  0  0
 28  2  1  0  0  0  0
 28  7  1  0  0  0  0
 26 21  1  0  0  0  0
M  END
>  <zinc_id>  (318) 
ZINC000003069081

>  <smiles>  (318) 
Cc1cc(=O)oc2ccc(OC(=O)[C@H](C)NC(=O)OCc3ccccc3)cc12

>  <source_line>  (318) 
318

>  <source_data>  (318) 
ZINC000003069081

>  <source_name>  (318) 


>  <source_label>  (318) 
ZINC000003069081

>  <found_by>  (318) 
ZINC

> <Gold.Version>
5.8.1

> <Gold.Id.Protein>
ID|ID_protein|mol2

> <Gold.Goldscore.Fitness>
64.2119

> <Gold.Goldscore.Internal.Vdw>
-1.5414

> <Gold.Goldscore.Internal.Torsion>
-2.3792

> <Gold.Goldscore.External.Vdw>
46.3332

> <Gold.Goldscore.Internal.HBond>
0.0000

> <Gold.Goldscore.External.HBond>
4.8169

> <Gold.Goldscore.Internal.Correction>
0.3925

> <Gold.Goldscore.Hbonds>
donor molecule, donor type, donor heavy atom, donor atom, acceptor molecule, acceptor atom, score
      P1  H   112  4464       L1    13  0.07
      P1  H   441  4840       L1    16  0.17
      P1  H  1822  6079       L1     5  0.62
      P1  H  1916  6166       L1    18  0.86

> <Gold.Goldscore.Internal.Vdw.Weighted>
-1.5414

> <Gold.Goldscore.Internal.Torsion.Weighted>
-2.3792

> <Gold.Goldscore.External.Vdw.Weighted>
63.7081

> <Gold.Goldscore.Internal.HBond.Weighted>
0.0000

> <Gold.Goldscore.External.HBond.Weighted>
4.8169

> <Gold.Goldscore.Internal.Correction.Weighted>
0.3925

> <Gold.Protein.RotatedTorsions>
[ 4464  112  111  109 ] final   61.05 input   60.00 | X-H torsion
[ 4839  441  440  439 ] final   81.22 input   60.00 | X-H torsion
[ 4985  758  757  756 ] final  -17.07 input   60.00 | X-H torsion
[ 5271 1023 1022 1020 ] final   65.74 input   60.00 | X-H torsion
[ 6036 1776 1775 1774 ] final  103.23 input   60.00 | X-H torsion
[ 6078 1819 1818 1817 ] final  128.31 input   60.00 | X-H torsion
[ 6166 1916 1915 1913 ] final -130.24 input   60.00 | X-H torsion
[ 4818   65   64   63 ] final  120.10 input   60.00 | X-H torsion
[ 6268 1997 1996 1994 ] final   31.97 input   60.00 | X-H torsion
[ 8592   72   71   70 ] final  -19.03 input   60.00 | X-H torsion
[ 4356  100   99   97 ] final  170.28 input   60.00 | X-H torsion
[ 8510  202  201  200 ] final  -53.26 input   60.00 | X-H torsion
[ 5330 1065 1064 1063 ] final   42.24 input   60.00 | X-H torsion
[ 6640 2347 2346 2344 ] final  108.09 input   60.00 | X-H torsion
[ 4452  380  379  378 ] final  135.32 input   60.00 | X-H torsion
[ 4500  391  390  389 ] final -140.37 input   60.00 | X-H torsion

> <Gold.Protein.ActiveResidues>
 THR8    THR9    PRO10   ILE11   TYR12   TYR13   VAL14   ASN15   ALA16   HIS19  
 HIS22   SER25   VAL29   MET46   THR47   GLY48   THR49   ASP50   GLU51   HIS52  
 GLY53   GLN54   LYS55   VAL56   ALA57   GLU58   THR71   PHE78   ILE93   THR95  
 THR96   HIS100  GLU101  VAL104  TRP108  TYR126  VAL128  SER129  ASP130  GLU131 
 SER132  LEU210  SER211  ILE212  SER213  ARG214  LYS215  ARG216  SER218  VAL219 
 MET220  ASN221  TRP222  SER223  ILE224  PRO225  VAL226  HIS232  CYS233  ILE234 
 TYR235  VAL236  TRP237  LEU238  ASP239  ALA240  LEU241  PHE242  ASN243  TYR244 
 TYR245  THR246  HIS275  VAL276  VAL277  GLY278  LYS279  ASP280  ILE281  LEU282 
 LYS283  PHE284  HIS285  ALA286  ILE287  TYR288  TRP289  PRO290  PHE292  LEU304 
 TRP309 

> <Gold.Protein.RotatedAtoms>
  -31.9487   -7.6741   -6.4921 H   0  0  0  0  0  0  0  0  0  0  0  0  # atno 4356 bound_to 100 
  -30.4285   -8.5196   -8.1069 H   0  0  0  0  0  0  0  0  0  0  0  0  # atno 4452 bound_to 380 
  -45.6843  -11.7655  -15.4525 H   0  0  0  0  0  0  0  0  0  0  0  0  # atno 4464 bound_to 112 
  -34.0673   -9.7400  -16.6358 H   0  0  0  0  0  0  0  0  0  0  0  0  # atno 4500 bound_to 391 
  -31.7822  -15.7333   -3.8354 H   0  0  0  0  0  0  0  0  0  0  0  0  # atno 4818 bound_to 65  
  -48.4225  -11.1736  -14.5801 H   0  0  0  0  0  0  0  0  0  0  0  0  # atno 4839 bound_to 441 
  -48.0329  -11.5461  -13.0127 H   0  0  0  0  0  0  0  0  0  0  0  0  # atno 4840 bound_to 441 
  -49.5206  -10.9072  -13.3675 H   0  0  0  0  0  0  0  0  0  0  0  0  # atno 4841 bound_to 441 
  -37.3950  -17.9767  -17.2247 H   0  0  0  0  0  0  0  0  0  0  0  0  # atno 4985 bound_to 758 
  -54.3232  -17.8751  -14.6425 H   0  0  0  0  0  0  0  0  0  0  0  0  # atno 5271 bound_to 1023
  -54.2165  -14.9650   -8.5362 H   0  0  0  0  0  0  0  0  0  0  0  0  # atno 5330 bound_to 1065
  -55.1763  -16.9861  -17.9461 H   0  0  0  0  0  0  0  0  0  0  0  0  # atno 6036 bound_to 1776
  -46.4987  -17.7795  -19.2837 H   0  0  0  0  0  0  0  0  0  0  0  0  # atno 6078 bound_to 1819
  -48.9907  -15.2991  -10.9458 H   0  0  0  0  0  0  0  0  0  0  0  0  # atno 6166 bound_to 1916
  -34.5186  -14.9570   -5.3557 H   0  0  0  0  0  0  0  0  0  0  0  0  # atno 6268 bound_to 1997
  -48.9536  -20.2231   -1.1583 H   0  0  0  0  0  0  0  0  0  0  0  0  # atno 6640 bound_to 2347
  -34.9760   -7.0013   -1.1315 H   0  0  0  0  0  0  0  0  0  0  0  0  # atno 8510 bound_to 202 
  -32.7918   -9.7237   -4.0297 H   0  0  0  0  0  0  0  0  0  0  0  0  # atno 8592 bound_to 72  
  -44.7346  -11.1987  -16.6462 LP  0  0  0  0  0  0  0  0  0  0  0  0  # atno 8618 bound_to 112 
  -45.9869  -10.3039  -16.1007 LP  0  0  0  0  0  0  0  0  0  0  0  0  # atno 8619 bound_to 112 
  -38.7201  -17.2179  -16.6621 LP  0  0  0  0  0  0  0  0  0  0  0  0  # atno 8637 bound_to 758 
  -37.7109  -17.9791  -15.6283 LP  0  0  0  0  0  0  0  0  0  0  0  0  # atno 8638 bound_to 758 
  -54.3869  -16.7565  -13.4624 LP  0  0  0  0  0  0  0  0  0  0  0  0  # atno 8642 bound_to 1023
  -54.7606  -16.3487  -14.9988 LP  0  0  0  0  0  0  0  0  0  0  0  0  # atno 8643 bound_to 1023
  -53.9009  -16.1303  -18.4837 LP  0  0  0  0  0  0  0  0  0  0  0  0  # atno 8662 bound_to 1776
  -53.6732  -17.3931  -17.4737 LP  0  0  0  0  0  0  0  0  0  0  0  0  # atno 8663 bound_to 1776
  -45.1036  -16.9859  -19.5520 LP  0  0  0  0  0  0  0  0  0  0  0  0  # atno 8672 bound_to 1819
  -45.2826  -17.8972  -18.2088 LP  0  0  0  0  0  0  0  0  0  0  0  0  # atno 8673 bound_to 1819
  -50.5270  -15.8094  -11.1116 LP  0  0  0  0  0  0  0  0  0  0  0  0  # atno 8684 bound_to 1916
  -49.7440  -15.1417  -12.3796 LP  0  0  0  0  0  0  0  0  0  0  0  0  # atno 8685 bound_to 1916
  -30.7278  -15.3262   -2.6647 LP  0  0  0  0  0  0  0  0  0  0  0  0  # atno 8712 bound_to 65  
  -30.7619  -16.8534   -3.2418 LP  0  0  0  0  0  0  0  0  0  0  0  0  # atno 8713 bound_to 65  
  -34.8468  -15.6555   -3.9231 LP  0  0  0  0  0  0  0  0  0  0  0  0  # atno 8724 bound_to 1997
  -35.8546  -15.8711   -5.1897 LP  0  0  0  0  0  0  0  0  0  0  0  0  # atno 8725 bound_to 1997
  -32.2362   -8.6787   -5.1465 LP  0  0  0  0  0  0  0  0  0  0  0  0  # atno 8747 bound_to 72  
  -31.4879   -8.8074   -3.7007 LP  0  0  0  0  0  0  0  0  0  0  0  0  # atno 8748 bound_to 72  
  -33.0770   -8.2741   -5.4845 LP  0  0  0  0  0  0  0  0  0  0  0  0  # atno 8749 bound_to 100 
  -32.8784   -6.6592   -5.6238 LP  0  0  0  0  0  0  0  0  0  0  0  0  # atno 8750 bound_to 100 
  -35.6237   -7.4836   -2.5443 LP  0  0  0  0  0  0  0  0  0  0  0  0  # atno 8754 bound_to 202 
  -35.2793   -5.9067   -2.2967 LP  0  0  0  0  0  0  0  0  0  0  0  0  # atno 8755 bound_to 202 
  -53.8715  -16.1078   -7.4303 LP  0  0  0  0  0  0  0  0  0  0  0  0  # atno 8775 bound_to 1065
  -54.6684  -14.7530   -6.9873 LP  0  0  0  0  0  0  0  0  0  0  0  0  # atno 8776 bound_to 1065
  -49.5514  -21.4690   -2.0176 LP  0  0  0  0  0  0  0  0  0  0  0  0  # atno 8779 bound_to 2347
  -49.1904  -20.0599   -2.7599 LP  0  0  0  0  0  0  0  0  0  0  0  0  # atno 8780 bound_to 2347
  -31.2492   -9.8075   -8.6686 LP  0  0  0  0  0  0  0  0  0  0  0  0  # atno 8787 bound_to 380 
  -30.6258   -8.7153   -9.7103 LP  0  0  0  0  0  0  0  0  0  0  0  0  # atno 8788 bound_to 380 

$$$$
