unknown|11k_best|sdf|8243|dock3
  -GOLD-   3 62123583D 1   1.00000     0.00000

 29 33  0  0  0  0  0  0  0  0  1 V2000
  -44.5414  -13.8264  -14.5264 O   0  0  0  0  0  0  0  0  0  0  0  0
  -45.4703  -13.8848  -13.6900 C   0  0  0  0  0  0  0  0  0  0  0  0
  -45.4761  -13.1545  -12.4271 C   0  0  0  0  0  0  0  0  0  0  0  0
  -44.6764  -12.2112  -11.9821 C   0  0  0  0  0  0  0  0  0  0  0  0
  -45.2209  -11.2070  -11.1174 N   0  0  0  0  0  0  0  0  0  0  0  0
  -45.1128   -9.8369  -11.6078 C   0  0  0  0  0  0  0  0  0  0  0  0
  -45.9389   -8.9126  -10.7990 C   0  0  0  0  0  0  0  0  0  0  0  0
  -46.7761   -9.1890   -9.7444 C   0  0  0  0  0  0  0  0  0  0  0  0
  -47.7476   -8.2023   -9.7353 C   0  0  0  0  0  0  0  0  0  0  0  0
  -47.3140   -7.2533  -10.6488 C   0  0  0  0  0  0  0  0  0  0  0  0
  -46.1582   -7.6681  -11.1287 O   0  0  0  0  0  0  0  0  0  0  0  0
  -46.6539  -13.6604  -11.7108 C   0  0  0  0  0  0  0  0  0  0  0  0
  -46.8993  -13.3757  -10.2912 C   0  0  0  0  0  0  0  0  0  0  0  0
  -45.7820  -13.4143   -9.4698 C   0  0  0  0  0  0  0  0  0  0  0  0
  -45.8607  -13.7936   -8.1363 C   0  0  0  0  0  0  0  0  0  0  0  0
  -47.1180  -13.9153   -7.5573 C   0  0  0  0  0  0  0  0  0  0  0  0
  -48.2355  -13.5965   -8.3133 C   0  0  0  0  0  0  0  0  0  0  0  0
  -48.0949  -13.7424   -9.6861 C   0  0  0  0  0  0  0  0  0  0  0  0
  -47.3470  -14.4084  -12.5129 N   0  0  0  0  0  0  0  0  0  0  0  0
  -46.5462  -14.8255  -13.5934 N   0  0  0  0  0  0  0  0  0  0  0  0
  -46.8108  -15.8813  -14.5267 C   0  0  0  0  0  0  0  0  0  0  0  0
  -47.5669  -15.7970  -15.6501 N   0  0  0  0  0  0  0  0  0  0  0  0
  -47.9108  -17.0054  -16.1086 C   0  0  0  0  0  0  0  0  0  0  0  0
  -49.0066  -17.3052  -16.9118 C   0  0  0  0  0  0  0  0  0  0  0  0
  -49.1026  -18.5401  -17.4945 C   0  0  0  0  0  0  0  0  0  0  0  0
  -47.9510  -19.2278  -17.8541 C   0  0  0  0  0  0  0  0  0  0  0  0
  -46.8274  -18.9385  -17.0882 C   0  0  0  0  0  0  0  0  0  0  0  0
  -46.7957  -17.8242  -16.2570 C   0  0  0  0  0  0  0  0  0  0  0  0
  -45.8359  -17.2312  -14.9598 S   0  0  0  0  0  0  0  0  0  0  0  0
  1  2  2  0  0  0  0
  2  3  1  0  0  0  0
  3  4  2  0  0  0  0
  4  5  1  0  0  0  0
  5  6  1  0  0  0  0
  6  7  1  0  0  0  0
  7  8  2  0  0  0  0
  8  9  1  0  0  0  0
  9 10  2  0  0  0  0
 10 11  1  0  0  0  0
  3 12  1  0  0  0  0
 12 13  1  0  0  0  0
 13 14  2  0  0  0  0
 14 15  1  0  0  0  0
 15 16  2  0  0  0  0
 16 17  1  0  0  0  0
 17 18  2  0  0  0  0
 12 19  2  0  0  0  0
 19 20  1  0  0  0  0
 20 21  1  0  0  0  0
 21 22  2  0  0  0  0
 22 23  1  0  0  0  0
 23 24  2  0  0  0  0
 24 25  1  0  0  0  0
 25 26  2  0  0  0  0
 26 27  1  0  0  0  0
 27 28  2  0  0  0  0
 28 29  1  0  0  0  0
 20  2  1  0  0  0  0
 29 21  1  0  0  0  0
 11  7  1  0  0  0  0
 18 13  1  0  0  0  0
 28 23  1  0  0  0  0
M  END
>  <zinc_id>  (243) 
ZINC000100567651

>  <smiles>  (243) 
O=C1/C(=C/NCc2ccco2)C(c2ccccc2)=NN1c1nc2ccccc2s1

>  <source_line>  (243) 
243

>  <source_data>  (243) 
ZINC000100567651

>  <source_name>  (243) 


>  <source_label>  (243) 
ZINC000100567651

>  <found_by>  (243) 
ZINC

> <Gold.Version>
5.8.1

> <Gold.Id.Protein>
ID|ID_protein|mol2

> <Gold.Goldscore.Fitness>
62.5049

> <Gold.Goldscore.Internal.Vdw>
2.2793

> <Gold.Goldscore.Internal.Torsion>
-2.6287

> <Gold.Goldscore.External.Vdw>
47.0320

> <Gold.Goldscore.Internal.HBond>
0.0000

> <Gold.Goldscore.External.HBond>
0.7671

> <Gold.Goldscore.Internal.Correction>
2.5819

> <Gold.Goldscore.Hbonds>
donor molecule, donor type, donor heavy atom, donor atom, acceptor molecule, acceptor atom, score
      P1  H   112  4464       L1     1  0.03
      P1  H  1916  6166       L1    19  0.35

> <Gold.Goldscore.Internal.Vdw.Weighted>
2.2793

> <Gold.Goldscore.Internal.Torsion.Weighted>
-2.6287

> <Gold.Goldscore.External.Vdw.Weighted>
64.6690

> <Gold.Goldscore.Internal.HBond.Weighted>
0.0000

> <Gold.Goldscore.External.HBond.Weighted>
0.7671

> <Gold.Goldscore.Internal.Correction.Weighted>
2.5819

> <Gold.Protein.RotatedTorsions>
[ 4464  112  111  109 ] final   13.73 input   60.00 | X-H torsion
[ 4839  441  440  439 ] final  147.82 input   60.00 | X-H torsion
[ 4985  758  757  756 ] final  152.19 input   60.00 | X-H torsion
[ 5271 1023 1022 1020 ] final   14.53 input   60.00 | X-H torsion
[ 6036 1776 1775 1774 ] final   68.61 input   60.00 | X-H torsion
[ 6078 1819 1818 1817 ] final  133.06 input   60.00 | X-H torsion
[ 6166 1916 1915 1913 ] final  -86.33 input   60.00 | X-H torsion
[ 4818   65   64   63 ] final   30.55 input   60.00 | X-H torsion
[ 6268 1997 1996 1994 ] final -147.21 input   60.00 | X-H torsion
[ 8592   72   71   70 ] final   85.55 input   60.00 | X-H torsion
[ 4356  100   99   97 ] final  -60.33 input   60.00 | X-H torsion
[ 8510  202  201  200 ] final  -64.72 input   60.00 | X-H torsion
[ 5330 1065 1064 1063 ] final   49.78 input   60.00 | X-H torsion
[ 6640 2347 2346 2344 ] final   86.34 input   60.00 | X-H torsion
[ 4452  380  379  378 ] final    1.69 input   60.00 | X-H torsion
[ 4500  391  390  389 ] final -136.59 input   60.00 | X-H torsion

> <Gold.Protein.ActiveResidues>
 THR8    THR9    PRO10   ILE11   TYR12   TYR13   VAL14   ASN15   ALA16   HIS19  
 HIS22   SER25   VAL29   MET46   THR47   GLY48   THR49   ASP50   GLU51   HIS52  
 GLY53   GLN54   LYS55   VAL56   ALA57   GLU58   THR71   PHE78   ILE93   THR95  
 THR96   HIS100  GLU101  VAL104  TRP108  TYR126  VAL128  SER129  ASP130  GLU131 
 SER132  LEU210  SER211  ILE212  SER213  ARG214  LYS215  ARG216  SER218  VAL219 
 MET220  ASN221  TRP222  SER223  ILE224  PRO225  VAL226  HIS232  CYS233  ILE234 
 TYR235  VAL236  TRP237  LEU238  ASP239  ALA240  LEU241  PHE242  ASN243  TYR244 
 TYR245  THR246  HIS275  VAL276  VAL277  GLY278  LYS279  ASP280  ILE281  LEU282 
 LYS283  PHE284  HIS285  ALA286  ILE287  TYR288  TRP289  PRO290  PHE292  LEU304 
 TRP309 

> <Gold.Protein.RotatedAtoms>
  -32.9811   -6.7330   -5.5361 H   0  0  0  0  0  0  0  0  0  0  0  0  # atno 4356 bound_to 100 
  -31.2571   -9.8081   -8.8916 H   0  0  0  0  0  0  0  0  0  0  0  0  # atno 4452 bound_to 380 
  -45.0869  -11.9251  -15.8793 H   0  0  0  0  0  0  0  0  0  0  0  0  # atno 4464 bound_to 112 
  -34.0186   -9.7586  -16.6029 H   0  0  0  0  0  0  0  0  0  0  0  0  # atno 4500 bound_to 391 
  -31.0772  -15.0926   -2.9235 H   0  0  0  0  0  0  0  0  0  0  0  0  # atno 4818 bound_to 65  
  -47.7766  -11.5335  -13.8335 H   0  0  0  0  0  0  0  0  0  0  0  0  # atno 4839 bound_to 441 
  -48.9919  -11.2017  -12.7564 H   0  0  0  0  0  0  0  0  0  0  0  0  # atno 4840 bound_to 441 
  -49.2074  -10.8917  -14.3704 H   0  0  0  0  0  0  0  0  0  0  0  0  # atno 4841 bound_to 441 
  -38.3675  -17.5568  -15.6906 H   0  0  0  0  0  0  0  0  0  0  0  0  # atno 4985 bound_to 758 
  -54.2190  -17.7290  -13.8536 H   0  0  0  0  0  0  0  0  0  0  0  0  # atno 5271 bound_to 1023
  -54.2768  -14.8658   -8.4952 H   0  0  0  0  0  0  0  0  0  0  0  0  # atno 5330 bound_to 1065
  -55.0869  -16.5485  -18.2792 H   0  0  0  0  0  0  0  0  0  0  0  0  # atno 6036 bound_to 1776
  -46.5042  -17.8219  -19.2190 H   0  0  0  0  0  0  0  0  0  0  0  0  # atno 6078 bound_to 1819
  -48.8921  -15.0669  -11.5988 H   0  0  0  0  0  0  0  0  0  0  0  0  # atno 6166 bound_to 1916
  -35.6155  -16.0302   -4.2830 H   0  0  0  0  0  0  0  0  0  0  0  0  # atno 6268 bound_to 1997
  -49.0500  -20.5481   -1.0588 H   0  0  0  0  0  0  0  0  0  0  0  0  # atno 6640 bound_to 2347
  -35.0215   -7.1768   -1.1767 H   0  0  0  0  0  0  0  0  0  0  0  0  # atno 8510 bound_to 202 
  -31.6014   -8.9802   -3.5562 H   0  0  0  0  0  0  0  0  0  0  0  0  # atno 8592 bound_to 72  
  -45.0985  -10.5413  -16.7354 LP  0  0  0  0  0  0  0  0  0  0  0  0  # atno 8618 bound_to 112 
  -46.2247  -10.8004  -15.5816 LP  0  0  0  0  0  0  0  0  0  0  0  0  # atno 8619 bound_to 112 
  -37.1416  -18.2250  -16.5265 LP  0  0  0  0  0  0  0  0  0  0  0  0  # atno 8637 bound_to 758 
  -38.3102  -17.3949  -17.3088 LP  0  0  0  0  0  0  0  0  0  0  0  0  # atno 8638 bound_to 758 
  -54.6234  -16.1563  -13.9601 LP  0  0  0  0  0  0  0  0  0  0  0  0  # atno 8642 bound_to 1023
  -54.6290  -17.0961  -15.2956 LP  0  0  0  0  0  0  0  0  0  0  0  0  # atno 8643 bound_to 1023
  -53.4679  -16.3889  -18.2380 LP  0  0  0  0  0  0  0  0  0  0  0  0  # atno 8662 bound_to 1776
  -54.1963  -17.5751  -17.3841 LP  0  0  0  0  0  0  0  0  0  0  0  0  # atno 8663 bound_to 1776
  -45.1638  -16.9822  -19.6016 LP  0  0  0  0  0  0  0  0  0  0  0  0  # atno 8672 bound_to 1819
  -45.2167  -17.8581  -18.2244 LP  0  0  0  0  0  0  0  0  0  0  0  0  # atno 8673 bound_to 1819
  -50.0069  -15.7612  -10.6380 LP  0  0  0  0  0  0  0  0  0  0  0  0  # atno 8684 bound_to 1916
  -50.3633  -15.4238  -12.1955 LP  0  0  0  0  0  0  0  0  0  0  0  0  # atno 8685 bound_to 1916
  -30.4971  -16.6128   -2.8994 LP  0  0  0  0  0  0  0  0  0  0  0  0  # atno 8712 bound_to 65  
  -31.7026  -16.2120   -3.9255 LP  0  0  0  0  0  0  0  0  0  0  0  0  # atno 8713 bound_to 65  
  -35.3091  -15.3374   -5.7232 LP  0  0  0  0  0  0  0  0  0  0  0  0  # atno 8724 bound_to 1997
  -34.2876  -15.1084   -4.4699 LP  0  0  0  0  0  0  0  0  0  0  0  0  # atno 8725 bound_to 1997
  -32.8900   -9.6833   -4.2584 LP  0  0  0  0  0  0  0  0  0  0  0  0  # atno 8747 bound_to 72  
  -32.0329   -8.5517   -5.0656 LP  0  0  0  0  0  0  0  0  0  0  0  0  # atno 8748 bound_to 72  
  -31.9329   -7.5212   -6.4994 LP  0  0  0  0  0  0  0  0  0  0  0  0  # atno 8749 bound_to 100 
  -32.9829   -8.3599   -5.5717 LP  0  0  0  0  0  0  0  0  0  0  0  0  # atno 8750 bound_to 100 
  -35.6519   -7.3443   -2.6676 LP  0  0  0  0  0  0  0  0  0  0  0  0  # atno 8754 bound_to 202 
  -35.2053   -5.8692   -2.1278 LP  0  0  0  0  0  0  0  0  0  0  0  0  # atno 8755 bound_to 202 
  -53.8403  -16.1164   -7.5500 LP  0  0  0  0  0  0  0  0  0  0  0  0  # atno 8775 bound_to 1065
  -54.6388  -14.8444   -6.9089 LP  0  0  0  0  0  0  0  0  0  0  0  0  # atno 8776 bound_to 1065
  -49.5792  -21.3717   -2.3587 LP  0  0  0  0  0  0  0  0  0  0  0  0  # atno 8779 bound_to 2347
  -49.0655  -19.8299   -2.5190 LP  0  0  0  0  0  0  0  0  0  0  0  0  # atno 8780 bound_to 2347
  -30.5181   -8.5477   -9.6082 LP  0  0  0  0  0  0  0  0  0  0  0  0  # atno 8787 bound_to 380 
  -30.5225   -8.6775   -7.9804 LP  0  0  0  0  0  0  0  0  0  0  0  0  # atno 8788 bound_to 380 

$$$$
