unknown|11k_best|sdf|8250|dock4
  -GOLD-   3 721 0 63D 1   1.00000     0.00000

 30 33  0  0  0  0  0  0  0  0  1 V2000
  -47.3318  -16.1493  -15.9264 C   0  0  0  0  0  0  0  0  0  0  0  0
  -46.7190  -15.5427  -14.5319 C   0  0  1  0  0  0  0  0  0  0  0  0
  -45.1905  -15.6284  -15.1003 C   0  0  0  0  0  0  0  0  0  0  0  0
  -44.0525  -14.7660  -14.1298 S   0  0  0  0  0  0  0  0  0  0  0  0
  -44.6167  -13.5592  -12.9883 C   0  0  0  0  0  0  0  0  0  0  0  0
  -43.7373  -13.2934  -11.9446 C   0  0  0  0  0  0  0  0  0  0  0  0
  -44.2733  -13.1360  -10.6698 C   0  0  0  0  0  0  0  0  0  0  0  0
  -45.6225  -12.8590  -10.4775 C   0  0  0  0  0  0  0  0  0  0  0  0
  -46.4338  -13.5627   -9.0832 S   0  0  0  0  0  0  0  0  0  0  0  0
  -47.6641  -14.2669   -9.6105 O   0  0  0  0  0  0  0  0  0  0  0  0
  -46.9279  -12.4757   -8.1828 O   0  0  0  0  0  0  0  0  0  0  0  0
  -45.3918  -14.5766   -8.2067 N   0  0  0  0  0  0  0  0  0  0  0  0
  -45.0162  -14.0952   -6.9100 C   0  0  0  0  0  0  0  0  0  0  0  0
  -44.0084  -14.9408   -6.2014 C   0  0  0  0  0  0  0  0  0  0  0  0
  -42.7134  -15.1093   -6.9362 C   0  0  0  0  0  0  0  0  0  0  0  0
  -41.9140  -15.9921   -6.0856 N   0  0  0  0  0  0  0  0  0  0  0  0
  -40.9914  -16.6585   -6.9621 C   0  0  0  0  0  0  0  0  0  0  0  0
  -39.5496  -16.4674   -6.5866 C   0  0  0  0  0  0  0  0  0  0  0  0
  -39.2748  -15.0090   -6.3928 C   0  0  0  0  0  0  0  0  0  0  0  0
  -38.5200  -14.2712   -7.2851 C   0  0  0  0  0  0  0  0  0  0  0  0
  -38.5362  -12.8868   -7.2838 C   0  0  0  0  0  0  0  0  0  0  0  0
  -39.5548  -12.2508   -6.5846 C   0  0  0  0  0  0  0  0  0  0  0  0
  -40.4570  -12.9967   -5.8360 C   0  0  0  0  0  0  0  0  0  0  0  0
  -40.2089  -14.3418   -5.6083 C   0  0  0  0  0  0  0  0  0  0  0  0
  -41.2788  -15.2233   -5.0422 C   0  0  0  0  0  0  0  0  0  0  0  0
  -46.2923  -12.4731  -11.6338 C   0  0  0  0  0  0  0  0  0  0  0  0
  -45.8327  -12.8856  -12.8837 C   0  0  0  0  0  0  0  0  0  0  0  0
  -46.8728  -13.1045  -13.8467 N   0  0  0  0  0  0  0  0  0  0  0  0
  -46.8972  -14.0039  -14.9781 C   0  0  0  0  0  0  0  0  0  0  0  0
  -48.0193  -13.8226  -15.5452 O   0  0  0  0  0  0  0  0  0  0  0  0
  2  1  1  0  0  0  0
  2  3  1  0  0  0  0
  3  4  1  0  0  0  0
  4  5  1  0  0  0  0
  5  6  2  0  0  0  0
  6  7  1  0  0  0  0
  7  8  2  0  0  0  0
  8  9  1  0  0  0  0
  9 10  2  0  0  0  0
  9 11  2  0  0  0  0
  9 12  1  0  0  0  0
 12 13  1  0  0  0  0
 13 14  1  0  0  0  0
 14 15  1  0  0  0  0
 15 16  1  0  0  0  0
 16 17  1  0  0  0  0
 17 18  1  0  0  0  0
 18 19  1  0  0  0  0
 19 20  2  0  0  0  0
 20 21  1  0  0  0  0
 21 22  2  0  0  0  0
 22 23  1  0  0  0  0
 23 24  2  0  0  0  0
 24 25  1  0  0  0  0
  8 26  1  0  0  0  0
 26 27  2  0  0  0  0
 27 28  1  0  0  0  0
 28 29  1  0  0  0  0
 29 30  2  0  0  0  0
 29  2  1  0  0  0  0
 27  5  1  0  0  0  0
 25 16  1  0  0  0  0
 24 19  1  0  0  0  0
M  END
>  <zinc_id>  (250) 
ZINC000015731167

>  <smiles>  (250) 
C[C@H]1CSc2ccc(S(=O)(=O)NCCCN3CCc4ccccc4C3)cc2NC1=O

>  <source_line>  (250) 
250

>  <source_data>  (250) 
ZINC000015731167

>  <source_name>  (250) 


>  <source_label>  (250) 
ZINC000015731167

>  <found_by>  (250) 
ZINC

> <Gold.Version>
5.8.1

> <Gold.Id.Protein>
ID|ID_protein|mol2

> <Gold.Goldscore.Fitness>
70.7857

> <Gold.Goldscore.Internal.Vdw>
1.5668

> <Gold.Goldscore.Internal.Torsion>
-3.3980

> <Gold.Goldscore.External.Vdw>
46.4316

> <Gold.Goldscore.Internal.HBond>
0.0000

> <Gold.Goldscore.External.HBond>
10.4309

> <Gold.Goldscore.Internal.Correction>
1.6574

> <Gold.Goldscore.Hbonds>
donor molecule, donor type, donor heavy atom, donor atom, acceptor molecule, acceptor atom, score
      P1  H   441  4840       L1    28  0.85
      P1  H  1916  6166       L1    10  0.99

> <Gold.Goldscore.Internal.Vdw.Weighted>
1.5668

> <Gold.Goldscore.Internal.Torsion.Weighted>
-3.3980

> <Gold.Goldscore.External.Vdw.Weighted>
63.8434

> <Gold.Goldscore.Internal.HBond.Weighted>
0.0000

> <Gold.Goldscore.External.HBond.Weighted>
10.4309

> <Gold.Goldscore.Internal.Correction.Weighted>
1.6574

> <Gold.Protein.RotatedTorsions>
[ 4464  112  111  109 ] final    6.23 input   60.00 | X-H torsion
[ 4839  441  440  439 ] final   36.36 input   60.00 | X-H torsion
[ 4985  758  757  756 ] final -137.44 input   60.00 | X-H torsion
[ 5271 1023 1022 1020 ] final   95.70 input   60.00 | X-H torsion
[ 6036 1776 1775 1774 ] final   28.36 input   60.00 | X-H torsion
[ 6078 1819 1818 1817 ] final -130.48 input   60.00 | X-H torsion
[ 6166 1916 1915 1913 ] final -138.50 input   60.00 | X-H torsion
[ 4818   65   64   63 ] final  150.70 input   60.00 | X-H torsion
[ 6268 1997 1996 1994 ] final -109.84 input   60.00 | X-H torsion
[ 8592   72   71   70 ] final  -71.51 input   60.00 | X-H torsion
[ 4356  100   99   97 ] final -114.55 input   60.00 | X-H torsion
[ 8510  202  201  200 ] final  -84.11 input   60.00 | X-H torsion
[ 5330 1065 1064 1063 ] final   35.58 input   60.00 | X-H torsion
[ 6640 2347 2346 2344 ] final   33.83 input   60.00 | X-H torsion
[ 4452  380  379  378 ] final -154.18 input   60.00 | X-H torsion
[ 4500  391  390  389 ] final -141.44 input   60.00 | X-H torsion

> <Gold.Protein.ActiveResidues>
 THR8    THR9    PRO10   ILE11   TYR12   TYR13   VAL14   ASN15   ALA16   HIS19  
 HIS22   SER25   VAL29   MET46   THR47   GLY48   THR49   ASP50   GLU51   HIS52  
 GLY53   GLN54   LYS55   VAL56   ALA57   GLU58   THR71   PHE78   ILE93   THR95  
 THR96   HIS100  GLU101  VAL104  TRP108  TYR126  VAL128  SER129  ASP130  GLU131 
 SER132  LEU210  SER211  ILE212  SER213  ARG214  LYS215  ARG216  SER218  VAL219 
 MET220  ASN221  TRP222  SER223  ILE224  PRO225  VAL226  HIS232  CYS233  ILE234 
 TYR235  VAL236  TRP237  LEU238  ASP239  ALA240  LEU241  PHE242  ASN243  TYR244 
 TYR245  THR246  HIS275  VAL276  VAL277  GLY278  LYS279  ASP280  ILE281  LEU282 
 LYS283  PHE284  HIS285  ALA286  ILE287  TYR288  TRP289  PRO290  PHE292  LEU304 
 TRP309 

> <Gold.Protein.RotatedAtoms>
  -32.3487   -6.6764   -6.1059 H   0  0  0  0  0  0  0  0  0  0  0  0  # atno 4356 bound_to 100 
  -30.3162   -8.2585   -9.1495 H   0  0  0  0  0  0  0  0  0  0  0  0  # atno 4452 bound_to 380 
  -45.0060  -11.8986  -15.9672 H   0  0  0  0  0  0  0  0  0  0  0  0  # atno 4464 bound_to 112 
  -34.0816   -9.7353  -16.6449 H   0  0  0  0  0  0  0  0  0  0  0  0  # atno 4500 bound_to 391 
  -31.6960  -16.2119   -3.9223 H   0  0  0  0  0  0  0  0  0  0  0  0  # atno 4818 bound_to 65  
  -49.0971  -10.9236  -14.4547 H   0  0  0  0  0  0  0  0  0  0  0  0  # atno 4839 bound_to 441 
  -47.7679  -11.5564  -13.6932 H   0  0  0  0  0  0  0  0  0  0  0  0  # atno 4840 bound_to 441 
  -49.1109  -11.1468  -12.8124 H   0  0  0  0  0  0  0  0  0  0  0  0  # atno 4841 bound_to 441 
  -38.7146  -17.2195  -16.6549 H   0  0  0  0  0  0  0  0  0  0  0  0  # atno 4985 bound_to 758 
  -54.4527  -17.6408  -15.0459 H   0  0  0  0  0  0  0  0  0  0  0  0  # atno 5271 bound_to 1023
  -54.1637  -15.0572   -8.5597 H   0  0  0  0  0  0  0  0  0  0  0  0  # atno 5330 bound_to 1065
  -54.6194  -16.1776  -18.5221 H   0  0  0  0  0  0  0  0  0  0  0  0  # atno 6036 bound_to 1776
  -45.5615  -18.0250  -18.2089 H   0  0  0  0  0  0  0  0  0  0  0  0  # atno 6078 bound_to 1819
  -49.0631  -15.3554  -10.8468 H   0  0  0  0  0  0  0  0  0  0  0  0  # atno 6166 bound_to 1916
  -35.1483  -15.8406   -3.9580 H   0  0  0  0  0  0  0  0  0  0  0  0  # atno 6268 bound_to 1997
  -49.3540  -21.2634   -1.3453 H   0  0  0  0  0  0  0  0  0  0  0  0  # atno 6640 bound_to 2347
  -35.1217   -7.4361   -1.3256 H   0  0  0  0  0  0  0  0  0  0  0  0  # atno 8510 bound_to 202 
  -32.8899   -9.4106   -4.7898 H   0  0  0  0  0  0  0  0  0  0  0  0  # atno 8592 bound_to 72  
  -45.1875  -10.4608  -16.7072 LP  0  0  0  0  0  0  0  0  0  0  0  0  # atno 8618 bound_to 112 
  -46.2172  -10.9077  -15.5213 LP  0  0  0  0  0  0  0  0  0  0  0  0  # atno 8619 bound_to 112 
  -37.7060  -17.9820  -15.6304 LP  0  0  0  0  0  0  0  0  0  0  0  0  # atno 8637 bound_to 758 
  -37.3961  -17.9776  -17.2337 LP  0  0  0  0  0  0  0  0  0  0  0  0  # atno 8638 bound_to 758 
  -54.2734  -17.2302  -13.4815 LP  0  0  0  0  0  0  0  0  0  0  0  0  # atno 8642 bound_to 1023
  -54.7436  -16.1110  -14.5736 LP  0  0  0  0  0  0  0  0  0  0  0  0  # atno 8643 bound_to 1023
  -53.3192  -16.8791  -17.8398 LP  0  0  0  0  0  0  0  0  0  0  0  0  # atno 8662 bound_to 1776
  -54.8158  -17.4584  -17.5376 LP  0  0  0  0  0  0  0  0  0  0  0  0  # atno 8663 bound_to 1776
  -46.4257  -17.5977  -19.5199 LP  0  0  0  0  0  0  0  0  0  0  0  0  # atno 8672 bound_to 1819
  -44.9042  -17.0381  -19.3234 LP  0  0  0  0  0  0  0  0  0  0  0  0  # atno 8673 bound_to 1819
  -50.5818  -15.7925  -11.2347 LP  0  0  0  0  0  0  0  0  0  0  0  0  # atno 8684 bound_to 1916
  -49.6162  -15.1020  -12.3561 LP  0  0  0  0  0  0  0  0  0  0  0  0  # atno 8685 bound_to 1916
  -31.0804  -15.0864   -2.9211 LP  0  0  0  0  0  0  0  0  0  0  0  0  # atno 8712 bound_to 65  
  -30.4962  -16.6112   -2.8979 LP  0  0  0  0  0  0  0  0  0  0  0  0  # atno 8713 bound_to 65  
  -35.7276  -15.6929   -5.4715 LP  0  0  0  0  0  0  0  0  0  0  0  0  # atno 8724 bound_to 1997
  -34.3395  -14.9438   -5.0488 LP  0  0  0  0  0  0  0  0  0  0  0  0  # atno 8725 bound_to 1997
  -31.6121   -8.4111   -4.6627 LP  0  0  0  0  0  0  0  0  0  0  0  0  # atno 8747 bound_to 72  
  -32.0132   -9.3904   -3.4190 LP  0  0  0  0  0  0  0  0  0  0  0  0  # atno 8748 bound_to 72  
  -32.2239   -8.2920   -6.2557 LP  0  0  0  0  0  0  0  0  0  0  0  0  # atno 8749 bound_to 100 
  -33.3288   -7.6461   -5.2415 LP  0  0  0  0  0  0  0  0  0  0  0  0  # atno 8750 bound_to 100 
  -35.6667   -7.0622   -2.8126 LP  0  0  0  0  0  0  0  0  0  0  0  0  # atno 8754 bound_to 202 
  -35.0895   -5.8902   -1.8329 LP  0  0  0  0  0  0  0  0  0  0  0  0  # atno 8755 bound_to 202 
  -53.9044  -16.0882   -7.3277 LP  0  0  0  0  0  0  0  0  0  0  0  0  # atno 8775 bound_to 1065
  -54.6885  -14.6798   -7.0663 LP  0  0  0  0  0  0  0  0  0  0  0  0  # atno 8776 bound_to 1065
  -49.4500  -20.7344   -2.8812 LP  0  0  0  0  0  0  0  0  0  0  0  0  # atno 8779 bound_to 2347
  -48.8886  -19.7469   -1.7081 LP  0  0  0  0  0  0  0  0  0  0  0  0  # atno 8780 bound_to 2347
  -30.8209   -9.1688   -7.8986 LP  0  0  0  0  0  0  0  0  0  0  0  0  # atno 8787 bound_to 380 
  -31.1672   -9.6168   -9.4303 LP  0  0  0  0  0  0  0  0  0  0  0  0  # atno 8788 bound_to 380 

$$$$
