unknown|11k_best|sdf|8261|dock8
  -GOLD-   3 721 0213D 1   1.00000     0.00000

 31 34  0  0  0  0  0  0  0  0  1 V2000
  -41.3030  -14.9882   -4.7204 C   0  0  0  0  0  0  0  0  0  0  0  0
  -41.7720  -15.8858   -5.6791 O   0  0  0  0  0  0  0  0  0  0  0  0
  -43.1000  -15.7777   -6.1028 C   0  0  0  0  0  0  0  0  0  0  0  0
  -43.4331  -16.3285   -7.3204 C   0  0  0  0  0  0  0  0  0  0  0  0
  -44.4135  -15.6919   -8.0722 C   0  0  0  0  0  0  0  0  0  0  0  0
  -45.4619  -15.1362   -7.3543 C   0  0  0  0  0  0  0  0  0  0  0  0
  -46.7723  -15.1482   -7.7816 O   0  0  0  0  0  0  0  0  0  0  0  0
  -47.8308  -14.5890   -7.0487 C   0  0  0  0  0  0  0  0  0  0  0  0
  -47.9548  -13.1003   -7.1952 C   0  0  0  0  0  0  0  0  0  0  0  0
  -48.0427  -12.7274   -8.5589 N   0  0  0  0  0  0  0  0  0  0  0  0
  -48.9434  -13.4227   -9.3797 C   0  0  0  0  0  0  0  0  0  0  0  0
  -48.8438  -12.9429  -10.7962 C   0  0  0  0  0  0  0  0  0  0  0  0
  -47.4894  -12.9219  -11.2741 N   0  0  0  0  0  0  0  0  0  0  0  0
  -47.0850  -14.4196  -11.5309 C   0  0  2  0  0  0  0  0  0  0  0  0
  -45.5299  -14.0858  -11.9577 C   0  0  0  0  0  0  0  0  0  0  0  0
  -47.6312  -14.3753  -13.0575 C   0  0  0  0  0  0  0  0  0  0  0  0
  -47.2735  -13.3479  -13.8655 N   0  0  0  0  0  0  0  0  0  0  0  0
  -47.0308  -13.8267  -15.0758 N   0  0  0  0  0  0  0  0  0  0  0  0
  -46.7819  -15.1513  -14.9149 C   0  0  0  0  0  0  0  0  0  0  0  0
  -45.6765  -15.8868  -15.5728 C   0  0  0  0  0  0  0  0  0  0  0  0
  -44.4080  -15.8874  -15.0048 C   0  0  0  0  0  0  0  0  0  0  0  0
  -43.5653  -16.9924  -15.0905 C   0  0  0  0  0  0  0  0  0  0  0  0
  -44.1523  -18.2281  -15.3398 C   0  0  0  0  0  0  0  0  0  0  0  0
  -43.5351  -19.4019  -15.1305 F   0  0  0  0  0  0  0  0  0  0  0  0
  -45.3927  -18.2715  -15.9659 C   0  0  0  0  0  0  0  0  0  0  0  0
  -45.9359  -17.0390  -16.3144 C   0  0  0  0  0  0  0  0  0  0  0  0
  -47.3760  -15.4454  -13.7967 O   0  0  0  0  0  0  0  0  0  0  0  0
  -46.5505  -12.2661  -10.4807 C   0  0  0  0  0  0  0  0  0  0  0  0
  -47.0377  -11.9376   -9.1117 C   0  0  0  0  0  0  0  0  0  0  0  0
  -45.1241  -14.5000   -6.1882 C   0  0  0  0  0  0  0  0  0  0  0  0
  -43.9022  -14.7681   -5.5945 C   0  0  0  0  0  0  0  0  0  0  0  0
  1  2  1  0  0  0  0
  2  3  1  0  0  0  0
  3  4  2  0  0  0  0
  4  5  1  0  0  0  0
  5  6  2  0  0  0  0
  6  7  1  0  0  0  0
  7  8  1  0  0  0  0
  8  9  1  0  0  0  0
  9 10  1  0  0  0  0
 10 11  1  0  0  0  0
 11 12  1  0  0  0  0
 12 13  1  0  0  0  0
 14 13  1  0  0  0  0
 14 15  1  0  0  0  0
 14 16  1  0  0  0  0
 16 17  2  0  0  0  0
 17 18  1  0  0  0  0
 18 19  2  0  0  0  0
 19 20  1  0  0  0  0
 20 21  2  0  0  0  0
 21 22  1  0  0  0  0
 22 23  2  0  0  0  0
 23 24  1  0  0  0  0
 23 25  1  0  0  0  0
 25 26  2  0  0  0  0
 19 27  1  0  0  0  0
 13 28  1  0  0  0  0
 28 29  1  0  0  0  0
  6 30  1  0  0  0  0
 30 31  2  0  0  0  0
 31  3  1  0  0  0  0
 29 10  1  0  0  0  0
 27 16  1  0  0  0  0
 26 20  1  0  0  0  0
M  END
>  <zinc_id>  (261) 
ZINC000022787312

>  <smiles>  (261) 
COc1ccc(OCCN2CCN([C@H](C)c3nnc(-c4ccc(F)cc4)o3)CC2)cc1

>  <source_line>  (261) 
261

>  <source_data>  (261) 
ZINC000022787312

>  <source_name>  (261) 


>  <source_label>  (261) 
ZINC000022787312

>  <found_by>  (261) 
ZINC

> <Gold.Version>
5.8.1

> <Gold.Id.Protein>
ID|ID_protein|mol2

> <Gold.Goldscore.Fitness>
63.4367

> <Gold.Goldscore.Internal.Vdw>
0.0953

> <Gold.Goldscore.Internal.Torsion>
-6.9595

> <Gold.Goldscore.External.Vdw>
46.2411

> <Gold.Goldscore.Internal.HBond>
0.0000

> <Gold.Goldscore.External.HBond>
6.0000

> <Gold.Goldscore.Internal.Correction>
-0.7195

> <Gold.Goldscore.Hbonds>
donor molecule, donor type, donor heavy atom, donor atom, acceptor molecule, acceptor atom, score
      P1  H   441  4841       L1    13  1.00

> <Gold.Goldscore.Internal.Vdw.Weighted>
0.0953

> <Gold.Goldscore.Internal.Torsion.Weighted>
-6.9595

> <Gold.Goldscore.External.Vdw.Weighted>
63.5815

> <Gold.Goldscore.Internal.HBond.Weighted>
0.0000

> <Gold.Goldscore.External.HBond.Weighted>
6.0000

> <Gold.Goldscore.Internal.Correction.Weighted>
-0.7195

> <Gold.Protein.RotatedTorsions>
[ 4464  112  111  109 ] final  144.25 input   60.00 | X-H torsion
[ 4839  441  440  439 ] final  -20.25 input   60.00 | X-H torsion
[ 4985  758  757  756 ] final -160.62 input   60.00 | X-H torsion
[ 5271 1023 1022 1020 ] final -101.22 input   60.00 | X-H torsion
[ 6036 1776 1775 1774 ] final -163.41 input   60.00 | X-H torsion
[ 6078 1819 1818 1817 ] final  -17.74 input   60.00 | X-H torsion
[ 6166 1916 1915 1913 ] final    6.99 input   60.00 | X-H torsion
[ 4818   65   64   63 ] final   36.35 input   60.00 | X-H torsion
[ 6268 1997 1996 1994 ] final -116.36 input   60.00 | X-H torsion
[ 8592   72   71   70 ] final  -49.36 input   60.00 | X-H torsion
[ 4356  100   99   97 ] final   65.91 input   60.00 | X-H torsion
[ 8510  202  201  200 ] final  108.26 input   60.00 | X-H torsion
[ 5330 1065 1064 1063 ] final   94.24 input   60.00 | X-H torsion
[ 6640 2347 2346 2344 ] final   68.26 input   60.00 | X-H torsion
[ 4452  380  379  378 ] final -148.06 input   60.00 | X-H torsion
[ 4500  391  390  389 ] final -149.65 input   60.00 | X-H torsion

> <Gold.Protein.ActiveResidues>
 THR8    THR9    PRO10   ILE11   TYR12   TYR13   VAL14   ASN15   ALA16   HIS19  
 HIS22   SER25   VAL29   MET46   THR47   GLY48   THR49   ASP50   GLU51   HIS52  
 GLY53   GLN54   LYS55   VAL56   ALA57   GLU58   THR71   PHE78   ILE93   THR95  
 THR96   HIS100  GLU101  VAL104  TRP108  TYR126  VAL128  SER129  ASP130  GLU131 
 SER132  LEU210  SER211  ILE212  SER213  ARG214  LYS215  ARG216  SER218  VAL219 
 MET220  ASN221  TRP222  SER223  ILE224  PRO225  VAL226  HIS232  CYS233  ILE234 
 TYR235  VAL236  TRP237  LEU238  ASP239  ALA240  LEU241  PHE242  ASN243  TYR244 
 TYR245  THR246  HIS275  VAL276  VAL277  GLY278  LYS279  ASP280  ILE281  LEU282 
 LYS283  PHE284  HIS285  ALA286  ILE287  TYR288  TRP289  PRO290  PHE292  LEU304 
 TRP309 

> <Gold.Protein.RotatedAtoms>
  -32.9146   -8.3987   -5.6376 H   0  0  0  0  0  0  0  0  0  0  0  0  # atno 4356 bound_to 100 
  -30.3400   -8.2902   -9.2413 H   0  0  0  0  0  0  0  0  0  0  0  0  # atno 4452 bound_to 380 
  -46.2067  -10.6608  -15.6810 H   0  0  0  0  0  0  0  0  0  0  0  0  # atno 4464 bound_to 112 
  -34.1947   -9.7090  -16.7118 H   0  0  0  0  0  0  0  0  0  0  0  0  # atno 4500 bound_to 391 
  -31.1470  -15.0739   -2.9846 H   0  0  0  0  0  0  0  0  0  0  0  0  # atno 4818 bound_to 65  
  -49.5474  -10.8544  -13.6698 H   0  0  0  0  0  0  0  0  0  0  0  0  # atno 4839 bound_to 441 
  -48.1618  -11.2926  -14.4670 H   0  0  0  0  0  0  0  0  0  0  0  0  # atno 4840 bound_to 441 
  -48.2668  -11.4798  -12.8234 H   0  0  0  0  0  0  0  0  0  0  0  0  # atno 4841 bound_to 441 
  -38.7220  -17.2612  -16.2811 H   0  0  0  0  0  0  0  0  0  0  0  0  # atno 4985 bound_to 758 
  -54.6067  -16.1921  -13.9024 H   0  0  0  0  0  0  0  0  0  0  0  0  # atno 5271 bound_to 1023
  -54.5907  -14.4722   -7.9969 H   0  0  0  0  0  0  0  0  0  0  0  0  # atno 5330 bound_to 1065
  -54.0677  -17.5519  -17.3923 H   0  0  0  0  0  0  0  0  0  0  0  0  # atno 6036 bound_to 1776
  -44.8517  -17.0787  -19.2245 H   0  0  0  0  0  0  0  0  0  0  0  0  # atno 6078 bound_to 1819
  -50.0052  -15.2451  -12.3626 H   0  0  0  0  0  0  0  0  0  0  0  0  # atno 6166 bound_to 1916
  -35.2382  -15.8871   -3.9912 H   0  0  0  0  0  0  0  0  0  0  0  0  # atno 6268 bound_to 1997
  -49.1502  -20.8242   -1.0757 H   0  0  0  0  0  0  0  0  0  0  0  0  # atno 6640 bound_to 2347
  -35.5268   -6.3185   -2.7581 H   0  0  0  0  0  0  0  0  0  0  0  0  # atno 8510 bound_to 202 
  -32.9237   -9.5974   -4.4841 H   0  0  0  0  0  0  0  0  0  0  0  0  # atno 8592 bound_to 72  
  -45.2107  -11.9452  -15.7611 LP  0  0  0  0  0  0  0  0  0  0  0  0  # atno 8618 bound_to 112 
  -44.9847  -10.6698  -16.7556 LP  0  0  0  0  0  0  0  0  0  0  0  0  # atno 8619 bound_to 112 
  -37.4238  -18.1339  -15.8325 LP  0  0  0  0  0  0  0  0  0  0  0  0  # atno 8637 bound_to 758 
  -37.6709  -17.7836  -17.4082 LP  0  0  0  0  0  0  0  0  0  0  0  0  # atno 8638 bound_to 758 
  -54.6461  -17.0284  -15.2978 LP  0  0  0  0  0  0  0  0  0  0  0  0  # atno 8642 bound_to 1023
  -54.2158  -17.7717  -13.9089 LP  0  0  0  0  0  0  0  0  0  0  0  0  # atno 8643 bound_to 1023
  -55.1431  -16.6429  -18.2080 LP  0  0  0  0  0  0  0  0  0  0  0  0  # atno 8662 bound_to 1776
  -53.5473  -16.3107  -18.3071 LP  0  0  0  0  0  0  0  0  0  0  0  0  # atno 8663 bound_to 1776
  -45.6733  -18.0635  -18.2229 LP  0  0  0  0  0  0  0  0  0  0  0  0  # atno 8672 bound_to 1819
  -46.3714  -17.5253  -19.5975 LP  0  0  0  0  0  0  0  0  0  0  0  0  # atno 8673 bound_to 1819
  -48.8866  -15.1873  -11.1822 LP  0  0  0  0  0  0  0  0  0  0  0  0  # atno 8684 bound_to 1916
  -50.3626  -15.8181  -10.8821 LP  0  0  0  0  0  0  0  0  0  0  0  0  # atno 8685 bound_to 1916
  -30.4638  -16.5440   -2.8425 LP  0  0  0  0  0  0  0  0  0  0  0  0  # atno 8712 bound_to 65  
  -31.6656  -16.2997   -3.9208 LP  0  0  0  0  0  0  0  0  0  0  0  0  # atno 8713 bound_to 65  
  -35.6702  -15.6328   -5.5393 LP  0  0  0  0  0  0  0  0  0  0  0  0  # atno 8724 bound_to 1997
  -34.3064  -14.9571   -4.9476 LP  0  0  0  0  0  0  0  0  0  0  0  0  # atno 8725 bound_to 1997
  -31.8458   -8.4644   -4.9343 LP  0  0  0  0  0  0  0  0  0  0  0  0  # atno 8747 bound_to 72  
  -31.7454   -9.1490   -3.4552 LP  0  0  0  0  0  0  0  0  0  0  0  0  # atno 8748 bound_to 72  
  -33.0458   -6.7848   -5.4757 LP  0  0  0  0  0  0  0  0  0  0  0  0  # atno 8749 bound_to 100 
  -31.9370   -7.4188   -6.4932 LP  0  0  0  0  0  0  0  0  0  0  0  0  # atno 8750 bound_to 100 
  -34.9238   -6.3474   -1.2469 LP  0  0  0  0  0  0  0  0  0  0  0  0  # atno 8754 bound_to 202 
  -35.4245   -7.7306   -1.9559 LP  0  0  0  0  0  0  0  0  0  0  0  0  # atno 8755 bound_to 202 
  -53.8108  -15.8824   -8.2233 LP  0  0  0  0  0  0  0  0  0  0  0  0  # atno 8775 bound_to 1065
  -54.3521  -15.4748   -6.7375 LP  0  0  0  0  0  0  0  0  0  0  0  0  # atno 8776 bound_to 1065
  -49.5647  -21.2042   -2.6027 LP  0  0  0  0  0  0  0  0  0  0  0  0  # atno 8779 bound_to 2347
  -48.9791  -19.7193   -2.2581 LP  0  0  0  0  0  0  0  0  0  0  0  0  # atno 8780 bound_to 2347
  -30.7681   -9.0839   -7.8868 LP  0  0  0  0  0  0  0  0  0  0  0  0  # atno 8787 bound_to 380 
  -31.1961   -9.6698   -9.3497 LP  0  0  0  0  0  0  0  0  0  0  0  0  # atno 8788 bound_to 380 

$$$$
