unknown|11k_best|sdf|8236|dock6
  -GOLD-   3 62123513D 1   1.00000     0.00000

 30 32  0  0  0  0  0  0  0  0  1 V2000
  -47.5267  -18.5609  -16.8373 C   0  0  0  0  0  0  0  0  0  0  0  0
  -46.2311  -17.9217  -16.4521 C   0  0  0  0  0  0  0  0  0  0  0  0
  -45.0526  -18.5635  -16.7968 C   0  0  0  0  0  0  0  0  0  0  0  0
  -43.8675  -17.9439  -16.4554 C   0  0  0  0  0  0  0  0  0  0  0  0
  -43.8754  -16.8483  -15.6114 C   0  0  0  0  0  0  0  0  0  0  0  0
  -45.0560  -16.1404  -15.4233 C   0  0  0  0  0  0  0  0  0  0  0  0
  -45.0736  -15.0745  -14.4886 N   0  0  0  0  0  0  0  0  0  0  0  0
  -43.9037  -14.6916  -13.7176 C   0  0  0  0  0  0  0  0  0  0  0  0
  -46.5495  -14.2720  -14.1380 S   0  0  0  0  0  0  0  0  0  0  0  0
  -47.6265  -15.2679  -13.7848 O   0  0  0  0  0  0  0  0  0  0  0  0
  -46.9621  -13.3523  -15.2363 O   0  0  0  0  0  0  0  0  0  0  0  0
  -46.2871  -13.3043  -12.6924 C   0  0  0  0  0  0  0  0  0  0  0  0
  -45.2158  -12.4632  -12.5568 C   0  0  0  0  0  0  0  0  0  0  0  0
  -45.0822  -11.7770  -11.3639 C   0  0  0  0  0  0  0  0  0  0  0  0
  -46.1440  -11.6949  -10.4736 C   0  0  0  0  0  0  0  0  0  0  0  0
  -47.2649  -12.4909  -10.6246 C   0  0  0  0  0  0  0  0  0  0  0  0
  -48.5413  -12.0271  -10.0669 C   0  0  0  0  0  0  0  0  0  0  0  0
  -49.4299  -11.5447  -10.8105 O   0  0  0  0  0  0  0  0  0  0  0  0
  -48.9727  -12.6860   -8.8718 N   0  0  0  0  0  0  0  0  0  0  0  0
  -49.3823  -14.0715   -9.0156 C   0  0  0  0  0  0  0  0  0  0  0  0
  -48.8988  -12.0353   -7.5670 C   0  0  0  0  0  0  0  0  0  0  0  0
  -47.6351  -12.5369   -6.9411 C   0  0  0  0  0  0  0  0  0  0  0  0
  -47.6414  -13.6454   -6.1029 C   0  0  0  0  0  0  0  0  0  0  0  0
  -46.6094  -14.5737   -6.1552 C   0  0  0  0  0  0  0  0  0  0  0  0
  -45.5530  -14.4290   -7.0465 C   0  0  0  0  0  0  0  0  0  0  0  0
  -45.0312  -15.5161   -7.6744 F   0  0  0  0  0  0  0  0  0  0  0  0
  -45.3671  -13.1424   -7.5374 C   0  0  0  0  0  0  0  0  0  0  0  0
  -46.3928  -12.2074   -7.4691 C   0  0  0  0  0  0  0  0  0  0  0  0
  -47.2947  -13.3051  -11.7368 C   0  0  0  0  0  0  0  0  0  0  0  0
  -46.2636  -16.7398  -15.7446 C   0  0  0  0  0  0  0  0  0  0  0  0
  1  2  1  0  0  0  0
  2  3  2  0  0  0  0
  3  4  1  0  0  0  0
  4  5  2  0  0  0  0
  5  6  1  0  0  0  0
  6  7  1  0  0  0  0
  7  8  1  0  0  0  0
  7  9  1  0  0  0  0
  9 10  2  0  0  0  0
  9 11  2  0  0  0  0
  9 12  1  0  0  0  0
 12 13  2  0  0  0  0
 13 14  1  0  0  0  0
 14 15  2  0  0  0  0
 15 16  1  0  0  0  0
 16 17  1  0  0  0  0
 17 18  2  0  0  0  0
 17 19  1  0  0  0  0
 19 20  1  0  0  0  0
 19 21  1  0  0  0  0
 21 22  1  0  0  0  0
 22 23  2  0  0  0  0
 23 24  1  0  0  0  0
 24 25  2  0  0  0  0
 25 26  1  0  0  0  0
 25 27  1  0  0  0  0
 27 28  2  0  0  0  0
 16 29  2  0  0  0  0
  6 30  2  0  0  0  0
 30  2  1  0  0  0  0
 29 12  1  0  0  0  0
 28 22  1  0  0  0  0
M  END
>  <zinc_id>  (236) 
ZINC000224487981

>  <smiles>  (236) 
Cc1cccc(N(C)S(=O)(=O)c2cccc(C(=O)N(C)Cc3ccc(F)cc3)c2)c1

>  <source_line>  (236) 
236

>  <source_data>  (236) 
ZINC000224487981

>  <source_name>  (236) 


>  <source_label>  (236) 
ZINC000224487981

>  <found_by>  (236) 
ZINC

> <Gold.Version>
5.8.1

> <Gold.Id.Protein>
ID|ID_protein|mol2

> <Gold.Goldscore.Fitness>
60.6836

> <Gold.Goldscore.Internal.Vdw>
4.0163

> <Gold.Goldscore.Internal.Torsion>
-35.6054

> <Gold.Goldscore.External.Vdw>
43.1403

> <Gold.Goldscore.Internal.HBond>
0.0000

> <Gold.Goldscore.External.HBond>
8.8141

> <Gold.Goldscore.Internal.Correction>
-24.1406

> <Gold.Goldscore.Hbonds>
donor molecule, donor type, donor heavy atom, donor atom, acceptor molecule, acceptor atom, score
      P1  H   112  4464       L1    11  0.13
      P1  H   441  4839       L1    18  1.00
      P1  H   441  4841       L1    11  0.43

> <Gold.Goldscore.Internal.Vdw.Weighted>
4.0163

> <Gold.Goldscore.Internal.Torsion.Weighted>
-35.6054

> <Gold.Goldscore.External.Vdw.Weighted>
59.3180

> <Gold.Goldscore.Internal.HBond.Weighted>
0.0000

> <Gold.Goldscore.External.HBond.Weighted>
8.8141

> <Gold.Goldscore.Internal.Correction.Weighted>
-24.1406

> <Gold.Protein.RotatedTorsions>
[ 4464  112  111  109 ] final   36.85 input   60.00 | X-H torsion
[ 4839  441  440  439 ] final -102.95 input   60.00 | X-H torsion
[ 4985  758  757  756 ] final   15.35 input   60.00 | X-H torsion
[ 5271 1023 1022 1020 ] final -133.31 input   60.00 | X-H torsion
[ 6036 1776 1775 1774 ] final -102.06 input   60.00 | X-H torsion
[ 6078 1819 1818 1817 ] final    7.30 input   60.00 | X-H torsion
[ 6166 1916 1915 1913 ] final  -80.07 input   60.00 | X-H torsion
[ 4818   65   64   63 ] final   46.97 input   60.00 | X-H torsion
[ 6268 1997 1996 1994 ] final -106.20 input   60.00 | X-H torsion
[ 8592   72   71   70 ] final   60.48 input   60.00 | X-H torsion
[ 4356  100   99   97 ] final  144.97 input   60.00 | X-H torsion
[ 8510  202  201  200 ] final  -66.77 input   60.00 | X-H torsion
[ 5330 1065 1064 1063 ] final   39.59 input   60.00 | X-H torsion
[ 6640 2347 2346 2344 ] final  -56.26 input   60.00 | X-H torsion
[ 4452  380  379  378 ] final -106.08 input   60.00 | X-H torsion
[ 4500  391  390  389 ] final   49.04 input   60.00 | X-H torsion

> <Gold.Protein.ActiveResidues>
 THR8    THR9    PRO10   ILE11   TYR12   TYR13   VAL14   ASN15   ALA16   HIS19  
 HIS22   SER25   VAL29   MET46   THR47   GLY48   THR49   ASP50   GLU51   HIS52  
 GLY53   GLN54   LYS55   VAL56   ALA57   GLU58   THR71   PHE78   ILE93   THR95  
 THR96   HIS100  GLU101  VAL104  TRP108  TYR126  VAL128  SER129  ASP130  GLU131 
 SER132  LEU210  SER211  ILE212  SER213  ARG214  LYS215  ARG216  SER218  VAL219 
 MET220  ASN221  TRP222  SER223  ILE224  PRO225  VAL226  HIS232  CYS233  ILE234 
 TYR235  VAL236  TRP237  LEU238  ASP239  ALA240  LEU241  PHE242  ASN243  TYR244 
 TYR245  THR246  HIS275  VAL276  VAL277  GLY278  LYS279  ASP280  ILE281  LEU282 
 LYS283  PHE284  HIS285  ALA286  ILE287  TYR288  TRP289  PRO290  PHE292  LEU304 
 TRP309 

> <Gold.Protein.RotatedAtoms>
  -32.0632   -8.0567   -6.3981 H   0  0  0  0  0  0  0  0  0  0  0  0  # atno 4356 bound_to 100 
  -30.6133   -8.7005   -9.6960 H   0  0  0  0  0  0  0  0  0  0  0  0  # atno 4452 bound_to 380 
  -45.3710  -11.9164  -15.6344 H   0  0  0  0  0  0  0  0  0  0  0  0  # atno 4464 bound_to 112 
  -35.0385  -11.2838  -16.2413 H   0  0  0  0  0  0  0  0  0  0  0  0  # atno 4500 bound_to 391 
  -31.2731  -15.0634   -3.1031 H   0  0  0  0  0  0  0  0  0  0  0  0  # atno 4818 bound_to 65  
  -48.8317  -11.2711  -12.7143 H   0  0  0  0  0  0  0  0  0  0  0  0  # atno 4839 bound_to 441 
  -49.3288  -10.8614  -14.2415 H   0  0  0  0  0  0  0  0  0  0  0  0  # atno 4840 bound_to 441 
  -47.8154  -11.4943  -14.0045 H   0  0  0  0  0  0  0  0  0  0  0  0  # atno 4841 bound_to 441 
  -37.1698  -18.1713  -16.7950 H   0  0  0  0  0  0  0  0  0  0  0  0  # atno 4985 bound_to 758 
  -54.7202  -16.0885  -14.3965 H   0  0  0  0  0  0  0  0  0  0  0  0  # atno 5271 bound_to 1023
  -54.1954  -15.0012   -8.5470 H   0  0  0  0  0  0  0  0  0  0  0  0  # atno 5330 bound_to 1065
  -53.3608  -17.0131  -17.7423 H   0  0  0  0  0  0  0  0  0  0  0  0  # atno 6036 bound_to 1776
  -45.0942  -16.9930  -19.5385 H   0  0  0  0  0  0  0  0  0  0  0  0  # atno 6078 bound_to 1819
  -48.9195  -15.0478  -11.6955 H   0  0  0  0  0  0  0  0  0  0  0  0  # atno 6166 bound_to 1916
  -35.0976  -15.8126   -3.9444 H   0  0  0  0  0  0  0  0  0  0  0  0  # atno 6268 bound_to 1997
  -49.5514  -21.1487   -2.6505 H   0  0  0  0  0  0  0  0  0  0  0  0  # atno 6640 bound_to 2347
  -35.0308   -7.2069   -1.1884 H   0  0  0  0  0  0  0  0  0  0  0  0  # atno 8510 bound_to 202 
  -31.8635   -9.2638   -3.4295 H   0  0  0  0  0  0  0  0  0  0  0  0  # atno 8592 bound_to 72  
  -44.8701  -10.8420  -16.7492 LP  0  0  0  0  0  0  0  0  0  0  0  0  # atno 8618 bound_to 112 
  -46.1669  -10.5085  -15.8145 LP  0  0  0  0  0  0  0  0  0  0  0  0  # atno 8619 bound_to 112 
  -38.5002  -17.2975  -17.1336 LP  0  0  0  0  0  0  0  0  0  0  0  0  # atno 8637 bound_to 758 
  -38.1578  -17.7037  -15.5895 LP  0  0  0  0  0  0  0  0  0  0  0  0  # atno 8638 bound_to 758 
  -54.5026  -17.5097  -15.1587 LP  0  0  0  0  0  0  0  0  0  0  0  0  # atno 8642 bound_to 1023
  -54.2451  -17.3947  -13.5503 LP  0  0  0  0  0  0  0  0  0  0  0  0  # atno 8643 bound_to 1023
  -54.9426  -17.3742  -17.6162 LP  0  0  0  0  0  0  0  0  0  0  0  0  # atno 8662 bound_to 1776
  -54.4597  -16.1220  -18.5465 LP  0  0  0  0  0  0  0  0  0  0  0  0  # atno 8663 bound_to 1776
  -45.2969  -17.9052  -18.2062 LP  0  0  0  0  0  0  0  0  0  0  0  0  # atno 8672 bound_to 1819
  -46.5037  -17.7699  -19.2980 LP  0  0  0  0  0  0  0  0  0  0  0  0  # atno 8673 bound_to 1819
  -49.9124  -15.7363  -10.6054 LP  0  0  0  0  0  0  0  0  0  0  0  0  # atno 8684 bound_to 1916
  -50.4302  -15.4678  -12.1307 LP  0  0  0  0  0  0  0  0  0  0  0  0  # atno 8685 bound_to 1916
  -30.4196  -16.4030   -2.7495 LP  0  0  0  0  0  0  0  0  0  0  0  0  # atno 8712 bound_to 65  
  -31.5828  -16.4512   -3.8945 LP  0  0  0  0  0  0  0  0  0  0  0  0  # atno 8713 bound_to 65  
  -35.7560  -15.7255   -5.4300 LP  0  0  0  0  0  0  0  0  0  0  0  0  # atno 8724 bound_to 1997
  -34.3622  -14.9395   -5.1041 LP  0  0  0  0  0  0  0  0  0  0  0  0  # atno 8725 bound_to 1997
  -32.9287   -9.5213   -4.6323 LP  0  0  0  0  0  0  0  0  0  0  0  0  # atno 8747 bound_to 72  
  -31.7302   -8.4280   -4.8193 LP  0  0  0  0  0  0  0  0  0  0  0  0  # atno 8748 bound_to 72  
  -33.2654   -7.9524   -5.3064 LP  0  0  0  0  0  0  0  0  0  0  0  0  # atno 8749 bound_to 100 
  -32.5747   -6.5956   -5.8966 LP  0  0  0  0  0  0  0  0  0  0  0  0  # atno 8750 bound_to 100 
  -35.6554   -7.3169   -2.6869 LP  0  0  0  0  0  0  0  0  0  0  0  0  # atno 8754 bound_to 202 
  -35.1923   -5.8664   -2.0967 LP  0  0  0  0  0  0  0  0  0  0  0  0  # atno 8755 bound_to 202 
  -53.8840  -16.1013   -7.3890 LP  0  0  0  0  0  0  0  0  0  0  0  0  # atno 8775 bound_to 1065
  -54.6771  -14.7230   -7.0177 LP  0  0  0  0  0  0  0  0  0  0  0  0  # atno 8776 bound_to 1065
  -48.9611  -19.7048   -2.1874 LP  0  0  0  0  0  0  0  0  0  0  0  0  # atno 8779 bound_to 2347
  -49.1787  -20.8919   -1.0874 LP  0  0  0  0  0  0  0  0  0  0  0  0  # atno 8780 bound_to 2347
  -30.4371   -8.5304   -8.0872 LP  0  0  0  0  0  0  0  0  0  0  0  0  # atno 8787 bound_to 380 
  -31.2519   -9.8101   -8.6914 LP  0  0  0  0  0  0  0  0  0  0  0  0  # atno 8788 bound_to 380 

$$$$
