unknown|11k_best|sdf|8328|dock4
  -GOLD-   3 721 1453D 1   1.00000     0.00000

 29 31  0  0  0  0  0  0  0  0  1 V2000
  -48.1081  -15.0042   -8.4322 C   0  0  0  0  0  0  0  0  0  0  0  0
  -48.6607  -14.1393   -9.4559 N   0  0  0  0  0  0  0  0  0  0  0  0
  -47.9618  -13.5523  -10.4582 C   0  0  0  0  0  0  0  0  0  0  0  0
  -46.8735  -14.2542  -11.2034 C   0  0  0  0  0  0  0  0  0  0  0  0
  -45.5979  -13.4878  -11.0357 C   0  0  0  0  0  0  0  0  0  0  0  0
  -45.5618  -12.3850  -11.6626 O   0  0  0  0  0  0  0  0  0  0  0  0
  -44.8672  -13.5011   -9.8056 N   0  0  0  0  0  0  0  0  0  0  0  0
  -43.7462  -12.6377   -9.5795 C   0  0  0  0  0  0  0  0  0  0  0  0
  -43.2084  -11.9530  -10.6516 C   0  0  0  0  0  0  0  0  0  0  0  0
  -41.8690  -11.6341  -10.7375 C   0  0  0  0  0  0  0  0  0  0  0  0
  -41.0458  -11.9953   -9.6961 C   0  0  0  0  0  0  0  0  0  0  0  0
  -41.5384  -12.5964   -8.5658 C   0  0  0  0  0  0  0  0  0  0  0  0
  -42.8714  -12.9507   -8.5460 C   0  0  0  0  0  0  0  0  0  0  0  0
  -48.7319  -12.5256  -10.8557 N   0  0  0  0  0  0  0  0  0  0  0  0
  -49.9427  -12.6678  -10.3212 N   0  0  0  0  0  0  0  0  0  0  0  0
  -49.9454  -13.7356   -9.4945 C   0  0  0  0  0  0  0  0  0  0  0  0
  -51.3733  -14.4581   -8.6791 S   0  0  0  0  0  0  0  0  0  0  0  0
  -50.7322  -15.6528   -7.4652 C   0  0  0  0  0  0  0  0  0  0  0  0
  -51.7377  -16.7474   -7.3326 C   0  0  0  0  0  0  0  0  0  0  0  0
  -52.5735  -16.6689   -6.4009 O   0  0  0  0  0  0  0  0  0  0  0  0
  -51.5137  -18.0392   -7.9070 N   0  0  0  0  0  0  0  0  0  0  0  0
  -52.5048  -19.0594   -7.7903 C   0  0  0  0  0  0  0  0  0  0  0  0
  -53.7468  -18.7779   -7.2390 C   0  0  0  0  0  0  0  0  0  0  0  0
  -54.5360  -19.7625   -6.6942 C   0  0  0  0  0  0  0  0  0  0  0  0
  -55.8476  -19.2986   -5.6161 Cl  0  0  0  0  0  0  0  0  0  0  0  0
  -54.1855  -21.0678   -6.9199 C   0  0  0  0  0  0  0  0  0  0  0  0
  -52.9070  -21.3782   -7.3134 C   0  0  0  0  0  0  0  0  0  0  0  0
  -52.1730  -20.3923   -7.9562 C   0  0  0  0  0  0  0  0  0  0  0  0
  -50.9110  -20.7643   -8.4167 O   0  0  0  0  0  0  0  0  0  0  0  0
  1  2  1  0  0  0  0
  2  3  1  0  0  0  0
  3  4  1  0  0  0  0
  4  5  1  0  0  0  0
  5  6  2  0  0  0  0
  5  7  1  0  0  0  0
  7  8  1  0  0  0  0
  8  9  2  0  0  0  0
  9 10  1  0  0  0  0
 10 11  2  0  0  0  0
 11 12  1  0  0  0  0
 12 13  2  0  0  0  0
  3 14  2  0  0  0  0
 14 15  1  0  0  0  0
 15 16  2  0  0  0  0
 16 17  1  0  0  0  0
 17 18  1  0  0  0  0
 18 19  1  0  0  0  0
 19 20  2  0  0  0  0
 19 21  1  0  0  0  0
 21 22  1  0  0  0  0
 22 23  2  0  0  0  0
 23 24  1  0  0  0  0
 24 25  1  0  0  0  0
 24 26  2  0  0  0  0
 26 27  1  0  0  0  0
 27 28  2  0  0  0  0
 28 29  1  0  0  0  0
 16  2  1  0  0  0  0
 28 22  1  0  0  0  0
 13  8  1  0  0  0  0
M  END
>  <zinc_id>  (328) 
ZINC000009328582

>  <smiles>  (328) 
Cn1c(CC(=O)Nc2ccccc2)nnc1SCC(=O)Nc1cc(Cl)ccc1O

>  <source_line>  (328) 
328

>  <source_data>  (328) 
ZINC000009328582

>  <source_name>  (328) 


>  <source_label>  (328) 
ZINC000009328582

>  <found_by>  (328) 
ZINC

> <Gold.Version>
5.8.1

> <Gold.Id.Protein>
ID|ID_protein|mol2

> <Gold.Goldscore.Fitness>
72.3464

> <Gold.Goldscore.Internal.Vdw>
0.1262

> <Gold.Goldscore.Internal.Torsion>
-8.0940

> <Gold.Goldscore.External.Vdw>
38.8275

> <Gold.Goldscore.Internal.HBond>
0.0000

> <Gold.Goldscore.External.HBond>
21.1117

> <Gold.Goldscore.Internal.Correction>
-5.8147

> <Gold.Goldscore.Hbonds>
donor molecule, donor type, donor heavy atom, donor atom, acceptor molecule, acceptor atom, score
      P1  H   441  4840       L1    14  0.85
      P1  H  1741  5997       L1    29  1.00
      P1  H  1932  6181       L1    29  0.99
      P1  H  1065  5330       L1    20  0.01

> <Gold.Goldscore.Internal.Vdw.Weighted>
0.1262

> <Gold.Goldscore.Internal.Torsion.Weighted>
-8.0940

> <Gold.Goldscore.External.Vdw.Weighted>
53.3878

> <Gold.Goldscore.Internal.HBond.Weighted>
0.0000

> <Gold.Goldscore.External.HBond.Weighted>
21.1117

> <Gold.Goldscore.Internal.Correction.Weighted>
-5.8147

> <Gold.Protein.RotatedTorsions>
[ 4464  112  111  109 ] final   92.55 input   60.00 | X-H torsion
[ 4839  441  440  439 ] final  118.36 input   60.00 | X-H torsion
[ 4985  758  757  756 ] final  -98.82 input   60.00 | X-H torsion
[ 5271 1023 1022 1020 ] final  -58.06 input   60.00 | X-H torsion
[ 6036 1776 1775 1774 ] final  -14.87 input   60.00 | X-H torsion
[ 6078 1819 1818 1817 ] final   11.42 input   60.00 | X-H torsion
[ 6166 1916 1915 1913 ] final   35.08 input   60.00 | X-H torsion
[ 4818   65   64   63 ] final  -15.91 input   60.00 | X-H torsion
[ 6268 1997 1996 1994 ] final   68.58 input   60.00 | X-H torsion
[ 8592   72   71   70 ] final  -29.04 input   60.00 | X-H torsion
[ 4356  100   99   97 ] final -179.16 input   60.00 | X-H torsion
[ 8510  202  201  200 ] final  121.65 input   60.00 | X-H torsion
[ 5330 1065 1064 1063 ] final -114.66 input   60.00 | X-H torsion
[ 6640 2347 2346 2344 ] final  -96.80 input   60.00 | X-H torsion
[ 4452  380  379  378 ] final -171.12 input   60.00 | X-H torsion
[ 4500  391  390  389 ] final   87.34 input   60.00 | X-H torsion

> <Gold.Protein.ActiveResidues>
 THR8    THR9    PRO10   ILE11   TYR12   TYR13   VAL14   ASN15   ALA16   HIS19  
 HIS22   SER25   VAL29   MET46   THR47   GLY48   THR49   ASP50   GLU51   HIS52  
 GLY53   GLN54   LYS55   VAL56   ALA57   GLU58   THR71   PHE78   ILE93   THR95  
 THR96   HIS100  GLU101  VAL104  TRP108  TYR126  VAL128  SER129  ASP130  GLU131 
 SER132  LEU210  SER211  ILE212  SER213  ARG214  LYS215  ARG216  SER218  VAL219 
 MET220  ASN221  TRP222  SER223  ILE224  PRO225  VAL226  HIS232  CYS233  ILE234 
 TYR235  VAL236  TRP237  LEU238  ASP239  ALA240  LEU241  PHE242  ASN243  TYR244 
 TYR245  THR246  HIS275  VAL276  VAL277  GLY278  LYS279  ASP280  ILE281  LEU282 
 LYS283  PHE284  HIS285  ALA286  ILE287  TYR288  TRP289  PRO290  PHE292  LEU304 
 TRP309 

> <Gold.Protein.RotatedAtoms>
  -31.9395   -7.5022   -6.4961 H   0  0  0  0  0  0  0  0  0  0  0  0  # atno 4356 bound_to 100 
  -30.2779   -8.2164   -8.8797 H   0  0  0  0  0  0  0  0  0  0  0  0  # atno 4452 bound_to 380 
  -46.0276  -11.3979  -15.3792 H   0  0  0  0  0  0  0  0  0  0  0  0  # atno 4464 bound_to 112 
  -35.3396  -10.8856  -16.5992 H   0  0  0  0  0  0  0  0  0  0  0  0  # atno 4500 bound_to 391 
  -30.5806  -15.5322   -2.5986 H   0  0  0  0  0  0  0  0  0  0  0  0  # atno 4818 bound_to 65  
  -47.9518  -11.4034  -14.2685 H   0  0  0  0  0  0  0  0  0  0  0  0  # atno 4839 bound_to 441 
  -48.5425  -11.3849  -12.7200 H   0  0  0  0  0  0  0  0  0  0  0  0  # atno 4840 bound_to 441 
  -49.4815  -10.8385  -13.9718 H   0  0  0  0  0  0  0  0  0  0  0  0  # atno 4841 bound_to 441 
  -38.4344  -17.3283  -17.1962 H   0  0  0  0  0  0  0  0  0  0  0  0  # atno 4985 bound_to 758 
  -54.4068  -16.7010  -13.4837 H   0  0  0  0  0  0  0  0  0  0  0  0  # atno 5271 bound_to 1023
  -54.1080  -15.8653   -6.9415 H   0  0  0  0  0  0  0  0  0  0  0  0  # atno 5330 bound_to 1065
  -53.9320  -16.1293  -18.4907 H   0  0  0  0  0  0  0  0  0  0  0  0  # atno 6036 bound_to 1776
  -45.1453  -16.9889  -19.5821 H   0  0  0  0  0  0  0  0  0  0  0  0  # atno 6078 bound_to 1819
  -50.3738  -15.4358  -12.1773 H   0  0  0  0  0  0  0  0  0  0  0  0  # atno 6166 bound_to 1916
  -34.9721  -15.1367   -5.6839 H   0  0  0  0  0  0  0  0  0  0  0  0  # atno 6268 bound_to 1997
  -49.3931  -20.5708   -2.8987 H   0  0  0  0  0  0  0  0  0  0  0  0  # atno 6640 bound_to 2347
  -35.5868   -6.5152   -2.8313 H   0  0  0  0  0  0  0  0  0  0  0  0  # atno 8510 bound_to 202 
  -32.8569   -9.7010   -4.1778 H   0  0  0  0  0  0  0  0  0  0  0  0  # atno 8592 bound_to 72  
  -44.7525  -11.6255  -16.3642 LP  0  0  0  0  0  0  0  0  0  0  0  0  # atno 8618 bound_to 112 
  -45.6233  -10.2472  -16.4564 LP  0  0  0  0  0  0  0  0  0  0  0  0  # atno 8619 bound_to 112 
  -38.2349  -17.6522  -15.6140 LP  0  0  0  0  0  0  0  0  0  0  0  0  # atno 8637 bound_to 758 
  -37.1495  -18.1979  -16.7052 LP  0  0  0  0  0  0  0  0  0  0  0  0  # atno 8638 bound_to 758 
  -54.7574  -16.3932  -15.0427 LP  0  0  0  0  0  0  0  0  0  0  0  0  # atno 8642 bound_to 1023
  -54.3058  -17.8944  -14.5855 LP  0  0  0  0  0  0  0  0  0  0  0  0  # atno 8643 bound_to 1023
  -53.6490  -17.3764  -17.4843 LP  0  0  0  0  0  0  0  0  0  0  0  0  # atno 8662 bound_to 1776
  -55.1781  -17.0098  -17.9248 LP  0  0  0  0  0  0  0  0  0  0  0  0  # atno 8663 bound_to 1776
  -45.2391  -17.8718  -18.2184 LP  0  0  0  0  0  0  0  0  0  0  0  0  # atno 8672 bound_to 1819
  -46.5100  -17.8074  -19.2419 LP  0  0  0  0  0  0  0  0  0  0  0  0  # atno 8673 bound_to 1819
  -48.8921  -15.0576  -11.6211 LP  0  0  0  0  0  0  0  0  0  0  0  0  # atno 8684 bound_to 1916
  -49.9859  -15.7559  -10.6298 LP  0  0  0  0  0  0  0  0  0  0  0  0  # atno 8685 bound_to 1916
  -30.9436  -16.8838   -3.4289 LP  0  0  0  0  0  0  0  0  0  0  0  0  # atno 8712 bound_to 65  
  -31.7563  -15.4983   -3.7232 LP  0  0  0  0  0  0  0  0  0  0  0  0  # atno 8713 bound_to 65  
  -34.4304  -15.3068   -4.1589 LP  0  0  0  0  0  0  0  0  0  0  0  0  # atno 8724 bound_to 1997
  -35.8142  -16.0389   -4.6233 LP  0  0  0  0  0  0  0  0  0  0  0  0  # atno 8725 bound_to 1997
  -32.1038   -8.5924   -5.1007 LP  0  0  0  0  0  0  0  0  0  0  0  0  # atno 8747 bound_to 72  
  -31.5547   -8.9166   -3.5974 LP  0  0  0  0  0  0  0  0  0  0  0  0  # atno 8748 bound_to 72  
  -32.9705   -8.3690   -5.5831 LP  0  0  0  0  0  0  0  0  0  0  0  0  # atno 8749 bound_to 100 
  -32.9942   -6.7374   -5.5211 LP  0  0  0  0  0  0  0  0  0  0  0  0  # atno 8750 bound_to 100 
  -34.9480   -6.1703   -1.3750 LP  0  0  0  0  0  0  0  0  0  0  0  0  # atno 8754 bound_to 202 
  -35.3397   -7.7096   -1.7541 LP  0  0  0  0  0  0  0  0  0  0  0  0  # atno 8755 bound_to 202 
  -54.7037  -14.4602   -7.5061 LP  0  0  0  0  0  0  0  0  0  0  0  0  # atno 8775 bound_to 1065
  -53.9454  -15.4940   -8.5175 LP  0  0  0  0  0  0  0  0  0  0  0  0  # atno 8776 bound_to 1065
  -48.8846  -19.8179   -1.5486 LP  0  0  0  0  0  0  0  0  0  0  0  0  # atno 8779 bound_to 2347
  -49.4147  -21.3608   -1.4762 LP  0  0  0  0  0  0  0  0  0  0  0  0  # atno 8780 bound_to 2347
  -30.9619   -9.3916   -7.9857 LP  0  0  0  0  0  0  0  0  0  0  0  0  # atno 8787 bound_to 380 
  -31.0648   -9.4364   -9.6149 LP  0  0  0  0  0  0  0  0  0  0  0  0  # atno 8788 bound_to 380 

$$$$
