unknown|11k_best|sdf|8292|dock10
  -GOLD-   3 721 1 03D 1   1.00000     0.00000

 30 33  0  0  0  0  0  0  0  0  1 V2000
  -48.7014  -11.4164   -9.8862 C   0  0  0  0  0  0  0  0  0  0  0  0
  -47.7258  -12.3122  -10.5844 C   0  0  0  0  0  0  0  0  0  0  0  0
  -47.9653  -13.1982  -11.5773 N   0  0  0  0  0  0  0  0  0  0  0  0
  -46.8843  -13.2976  -12.3872 C   0  0  0  0  0  0  0  0  0  0  0  0
  -46.9073  -13.6053  -13.8243 C   0  0  0  0  0  0  0  0  0  0  0  0
  -48.0391  -13.9002  -14.5105 N   0  0  0  0  0  0  0  0  0  0  0  0
  -47.7620  -14.7456  -15.4723 O   0  0  0  0  0  0  0  0  0  0  0  0
  -46.5045  -15.1373  -15.3764 C   0  0  0  0  0  0  0  0  0  0  0  0
  -45.8690  -16.2845  -16.0391 C   0  0  0  0  0  0  0  0  0  0  0  0
  -44.7780  -16.8202  -15.3652 C   0  0  0  0  0  0  0  0  0  0  0  0
  -44.1871  -18.0133  -15.7377 C   0  0  0  0  0  0  0  0  0  0  0  0
  -44.8536  -18.7485  -16.7072 C   0  0  0  0  0  0  0  0  0  0  0  0
  -46.1728  -18.4375  -17.0069 C   0  0  0  0  0  0  0  0  0  0  0  0
  -46.7087  -17.2099  -16.6399 C   0  0  0  0  0  0  0  0  0  0  0  0
  -45.9424  -14.2395  -14.5360 N   0  0  0  0  0  0  0  0  0  0  0  0
  -45.8585  -12.7177  -11.6527 C   0  0  0  0  0  0  0  0  0  0  0  0
  -46.4141  -11.9799  -10.6628 N   0  0  0  0  0  0  0  0  0  0  0  0
  -45.7064  -11.2710   -9.5998 C   0  0  0  0  0  0  0  0  0  0  0  0
  -45.8527  -12.1303   -8.3831 C   0  0  0  0  0  0  0  0  0  0  0  0
  -47.0144  -12.3558   -7.9280 O   0  0  0  0  0  0  0  0  0  0  0  0
  -44.8209  -12.0286   -7.3950 N   0  0  0  0  0  0  0  0  0  0  0  0
  -45.1223  -12.6220   -6.0976 C   0  0  0  0  0  0  0  0  0  0  0  0
  -44.6549  -14.0418   -6.0592 C   0  0  0  0  0  0  0  0  0  0  0  0
  -45.1136  -14.9784   -6.9768 C   0  0  0  0  0  0  0  0  0  0  0  0
  -44.2871  -15.9996   -7.4201 C   0  0  0  0  0  0  0  0  0  0  0  0
  -43.0004  -16.1275   -6.9116 C   0  0  0  0  0  0  0  0  0  0  0  0
  -42.1429  -17.1907   -7.4969 C   0  0  0  0  0  0  0  0  0  0  0  0
  -42.6497  -15.3878   -5.8094 C   0  0  0  0  0  0  0  0  0  0  0  0
  -41.3048  -15.6084   -5.2251 C   0  0  0  0  0  0  0  0  0  0  0  0
  -43.4443  -14.3305   -5.4563 C   0  0  0  0  0  0  0  0  0  0  0  0
  1  2  1  0  0  0  0
  2  3  2  0  0  0  0
  3  4  1  0  0  0  0
  4  5  1  0  0  0  0
  5  6  2  0  0  0  0
  6  7  1  0  0  0  0
  7  8  1  0  0  0  0
  8  9  1  0  0  0  0
  9 10  2  0  0  0  0
 10 11  1  0  0  0  0
 11 12  2  0  0  0  0
 12 13  1  0  0  0  0
 13 14  2  0  0  0  0
  8 15  2  0  0  0  0
  4 16  2  0  0  0  0
 16 17  1  0  0  0  0
 17 18  1  0  0  0  0
 18 19  1  0  0  0  0
 19 20  2  0  0  0  0
 19 21  1  0  0  0  0
 21 22  1  0  0  0  0
 22 23  1  0  0  0  0
 23 24  2  0  0  0  0
 24 25  1  0  0  0  0
 25 26  2  0  0  0  0
 26 27  1  0  0  0  0
 26 28  1  0  0  0  0
 28 29  1  0  0  0  0
 28 30  2  0  0  0  0
 17  2  1  0  0  0  0
 30 23  1  0  0  0  0
 15  5  1  0  0  0  0
 14  9  1  0  0  0  0
M  END
>  <zinc_id>  (292) 
ZINC000065250278

>  <smiles>  (292) 
Cc1ccc(CNC(=O)Cn2cc(-c3noc(-c4ccccc4)n3)nc2C)cc1C

>  <source_line>  (292) 
292

>  <source_data>  (292) 
ZINC000065250278

>  <source_name>  (292) 


>  <source_label>  (292) 
ZINC000065250278

>  <found_by>  (292) 
ZINC

> <Gold.Version>
5.8.1

> <Gold.Id.Protein>
ID|ID_protein|mol2

> <Gold.Goldscore.Fitness>
60.7697

> <Gold.Goldscore.Internal.Vdw>
1.6416

> <Gold.Goldscore.Internal.Torsion>
-4.9471

> <Gold.Goldscore.External.Vdw>
44.6378

> <Gold.Goldscore.Internal.HBond>
0.0000

> <Gold.Goldscore.External.HBond>
2.1335

> <Gold.Goldscore.Internal.Correction>
-0.5647

> <Gold.Goldscore.Hbonds>
donor molecule, donor type, donor heavy atom, donor atom, acceptor molecule, acceptor atom, score
      P1  H   112  4464       L1    15  0.19
      P1  H   426  4822       L1     7  0.04
      P1  H   441  4840       L1     3  0.07
      P1  H  1916  6166       L1     3  0.63

> <Gold.Goldscore.Internal.Vdw.Weighted>
1.6416

> <Gold.Goldscore.Internal.Torsion.Weighted>
-4.9471

> <Gold.Goldscore.External.Vdw.Weighted>
61.3770

> <Gold.Goldscore.Internal.HBond.Weighted>
0.0000

> <Gold.Goldscore.External.HBond.Weighted>
2.1335

> <Gold.Goldscore.Internal.Correction.Weighted>
-0.5647

> <Gold.Protein.RotatedTorsions>
[ 4464  112  111  109 ] final   51.24 input   60.00 | X-H torsion
[ 4839  441  440  439 ] final  101.66 input   60.00 | X-H torsion
[ 4985  758  757  756 ] final -140.46 input   60.00 | X-H torsion
[ 5271 1023 1022 1020 ] final  171.46 input   60.00 | X-H torsion
[ 6036 1776 1775 1774 ] final   90.98 input   60.00 | X-H torsion
[ 6078 1819 1818 1817 ] final   87.86 input   60.00 | X-H torsion
[ 6166 1916 1915 1913 ] final  -86.30 input   60.00 | X-H torsion
[ 4818   65   64   63 ] final   62.71 input   60.00 | X-H torsion
[ 6268 1997 1996 1994 ] final  176.79 input   60.00 | X-H torsion
[ 8592   72   71   70 ] final  -87.88 input   60.00 | X-H torsion
[ 4356  100   99   97 ] final -175.80 input   60.00 | X-H torsion
[ 8510  202  201  200 ] final   91.63 input   60.00 | X-H torsion
[ 5330 1065 1064 1063 ] final  -27.98 input   60.00 | X-H torsion
[ 6640 2347 2346 2344 ] final  -80.83 input   60.00 | X-H torsion
[ 4452  380  379  378 ] final   89.85 input   60.00 | X-H torsion
[ 4500  391  390  389 ] final   83.88 input   60.00 | X-H torsion

> <Gold.Protein.ActiveResidues>
 THR8    THR9    PRO10   ILE11   TYR12   TYR13   VAL14   ASN15   ALA16   HIS19  
 HIS22   SER25   VAL29   MET46   THR47   GLY48   THR49   ASP50   GLU51   HIS52  
 GLY53   GLN54   LYS55   VAL56   ALA57   GLU58   THR71   PHE78   ILE93   THR95  
 THR96   HIS100  GLU101  VAL104  TRP108  TYR126  VAL128  SER129  ASP130  GLU131 
 SER132  LEU210  SER211  ILE212  SER213  ARG214  LYS215  ARG216  SER218  VAL219 
 MET220  ASN221  TRP222  SER223  ILE224  PRO225  VAL226  HIS232  CYS233  ILE234 
 TYR235  VAL236  TRP237  LEU238  ASP239  ALA240  LEU241  PHE242  ASN243  TYR244 
 TYR245  THR246  HIS275  VAL276  VAL277  GLY278  LYS279  ASP280  ILE281  LEU282 
 LYS283  PHE284  HIS285  ALA286  ILE287  TYR288  TRP289  PRO290  PHE292  LEU304 
 TRP309 

> <Gold.Protein.RotatedAtoms>
  -31.9415   -7.4474   -6.4930 H   0  0  0  0  0  0  0  0  0  0  0  0  # atno 4356 bound_to 100 
  -30.7840   -9.1136   -7.8963 H   0  0  0  0  0  0  0  0  0  0  0  0  # atno 4452 bound_to 380 
  -45.5589  -11.8430  -15.5147 H   0  0  0  0  0  0  0  0  0  0  0  0  # atno 4464 bound_to 112 
  -35.3264  -10.9311  -16.5682 H   0  0  0  0  0  0  0  0  0  0  0  0  # atno 4500 bound_to 391 
  -31.4472  -15.1049   -3.2867 H   0  0  0  0  0  0  0  0  0  0  0  0  # atno 4818 bound_to 65  
  -48.1374  -11.3046  -14.4503 H   0  0  0  0  0  0  0  0  0  0  0  0  # atno 4839 bound_to 441 
  -48.2936  -11.4712  -12.8086 H   0  0  0  0  0  0  0  0  0  0  0  0  # atno 4840 bound_to 441 
  -49.5448  -10.8511  -13.7014 H   0  0  0  0  0  0  0  0  0  0  0  0  # atno 4841 bound_to 441 
  -38.7229  -17.2204  -16.6062 H   0  0  0  0  0  0  0  0  0  0  0  0  # atno 4985 bound_to 758 
  -54.7431  -16.5327  -15.1420 H   0  0  0  0  0  0  0  0  0  0  0  0  # atno 5271 bound_to 1023
  -53.8110  -15.9011   -8.1913 H   0  0  0  0  0  0  0  0  0  0  0  0  # atno 5330 bound_to 1065
  -55.1830  -16.8290  -18.0695 H   0  0  0  0  0  0  0  0  0  0  0  0  # atno 6036 bound_to 1776
  -46.2245  -17.3871  -19.7193 H   0  0  0  0  0  0  0  0  0  0  0  0  # atno 6078 bound_to 1819
  -48.8922  -15.0667  -11.5993 H   0  0  0  0  0  0  0  0  0  0  0  0  # atno 6166 bound_to 1916
  -35.8558  -16.0050   -4.8088 H   0  0  0  0  0  0  0  0  0  0  0  0  # atno 6268 bound_to 1997
  -49.4704  -20.8145   -2.8517 H   0  0  0  0  0  0  0  0  0  0  0  0  # atno 6640 bound_to 2347
  -35.4348   -6.1116   -2.6096 H   0  0  0  0  0  0  0  0  0  0  0  0  # atno 8510 bound_to 202 
  -32.7960   -9.2387   -4.9705 H   0  0  0  0  0  0  0  0  0  0  0  0  # atno 8592 bound_to 72  
  -44.7748  -11.0529  -16.7017 LP  0  0  0  0  0  0  0  0  0  0  0  0  # atno 8618 bound_to 112 
  -46.0730  -10.3716  -15.9826 LP  0  0  0  0  0  0  0  0  0  0  0  0  # atno 8619 bound_to 112 
  -37.6660  -18.0047  -15.6493 LP  0  0  0  0  0  0  0  0  0  0  0  0  # atno 8637 bound_to 758 
  -37.4278  -17.9540  -17.2640 LP  0  0  0  0  0  0  0  0  0  0  0  0  # atno 8638 bound_to 758 
  -54.2718  -17.9115  -14.4175 LP  0  0  0  0  0  0  0  0  0  0  0  0  # atno 8642 bound_to 1023
  -54.4528  -16.5457  -13.5408 LP  0  0  0  0  0  0  0  0  0  0  0  0  # atno 8643 bound_to 1023
  -53.7239  -16.1963  -18.4143 LP  0  0  0  0  0  0  0  0  0  0  0  0  # atno 8662 bound_to 1776
  -53.8435  -17.4852  -17.4188 LP  0  0  0  0  0  0  0  0  0  0  0  0  # atno 8663 bound_to 1776
  -44.7714  -17.1659  -19.0209 LP  0  0  0  0  0  0  0  0  0  0  0  0  # atno 8672 bound_to 1819
  -45.8908  -18.1123  -18.3012 LP  0  0  0  0  0  0  0  0  0  0  0  0  # atno 8673 bound_to 1819
  -50.0064  -15.7611  -10.6378 LP  0  0  0  0  0  0  0  0  0  0  0  0  # atno 8684 bound_to 1916
  -50.3637  -15.4241  -12.1952 LP  0  0  0  0  0  0  0  0  0  0  0  0  # atno 8685 bound_to 1916
  -30.3968  -16.1686   -2.6438 LP  0  0  0  0  0  0  0  0  0  0  0  0  # atno 8712 bound_to 65  
  -31.4303  -16.6439   -3.8153 LP  0  0  0  0  0  0  0  0  0  0  0  0  # atno 8713 bound_to 65  
  -34.8115  -15.0535   -5.6163 LP  0  0  0  0  0  0  0  0  0  0  0  0  # atno 8724 bound_to 1997
  -34.5432  -15.4176   -4.0472 LP  0  0  0  0  0  0  0  0  0  0  0  0  # atno 8725 bound_to 1997
  -31.4912   -8.4344   -4.4243 LP  0  0  0  0  0  0  0  0  0  0  0  0  # atno 8747 bound_to 72  
  -32.2286   -9.5401   -3.4754 LP  0  0  0  0  0  0  0  0  0  0  0  0  # atno 8748 bound_to 72  
  -32.9340   -8.3935   -5.6167 LP  0  0  0  0  0  0  0  0  0  0  0  0  # atno 8749 bound_to 100 
  -33.0287   -6.7681   -5.4907 LP  0  0  0  0  0  0  0  0  0  0  0  0  # atno 8750 bound_to 100 
  -34.9217   -6.6001   -1.1447 LP  0  0  0  0  0  0  0  0  0  0  0  0  # atno 8754 bound_to 202 
  -35.5192   -7.6862   -2.2077 LP  0  0  0  0  0  0  0  0  0  0  0  0  # atno 8755 bound_to 202 
  -54.3695  -15.4429   -6.7332 LP  0  0  0  0  0  0  0  0  0  0  0  0  # atno 8775 bound_to 1065
  -54.5787  -14.4752   -8.0318 LP  0  0  0  0  0  0  0  0  0  0  0  0  # atno 8776 bound_to 1065
  -48.8950  -19.7219   -1.7920 LP  0  0  0  0  0  0  0  0  0  0  0  0  # atno 8779 bound_to 2347
  -49.3263  -21.2114   -1.2802 LP  0  0  0  0  0  0  0  0  0  0  0  0  # atno 8780 bound_to 2347
  -31.1868   -9.6525   -9.3779 LP  0  0  0  0  0  0  0  0  0  0  0  0  # atno 8787 bound_to 380 
  -30.3303   -8.2720   -9.2131 LP  0  0  0  0  0  0  0  0  0  0  0  0  # atno 8788 bound_to 380 

$$$$
