unknown|11k_best|sdf|8282|dock6
  -GOLD-   3 721 0453D 1   1.00000     0.00000

 25 27  0  0  0  0  0  0  0  0  1 V2000
  -45.3962  -12.9542   -5.9487 C   0  0  0  0  0  0  0  0  0  0  0  0
  -45.6251  -14.5151   -5.5026 C   0  0  2  0  0  0  0  0  0  0  0  0
  -44.0930  -14.8986   -5.9168 C   0  0  0  0  0  0  0  0  0  0  0  0
  -44.2343  -15.7205   -7.3099 C   0  0  2  0  0  0  0  0  0  0  0  0
  -42.6350  -15.5692   -7.6204 C   0  0  0  0  0  0  0  0  0  0  0  0
  -44.5690  -14.3763   -8.1782 C   0  0  0  0  0  0  0  0  0  0  0  0
  -45.9459  -14.2128   -7.9307 N   0  0  0  0  0  0  0  0  0  0  0  0
  -46.8009  -14.2333   -9.0802 C   0  0  0  0  0  0  0  0  0  0  0  0
  -46.8456  -12.8366   -9.6502 C   0  0  0  0  0  0  0  0  0  0  0  0
  -47.1809  -12.9037  -11.0516 C   0  0  0  0  0  0  0  0  0  0  0  0
  -46.3360  -13.6707  -12.0056 C   0  0  0  0  0  0  0  0  0  0  0  0
  -47.4158  -14.0671  -12.8703 N   0  0  0  0  0  0  0  0  0  0  0  0
  -47.1459  -13.8258  -14.5495 S   0  0  0  0  0  0  0  0  0  0  0  0
  -46.1051  -12.7759  -14.7417 O   0  0  0  0  0  0  0  0  0  0  0  0
  -48.3749  -13.3738  -15.2453 O   0  0  0  0  0  0  0  0  0  0  0  0
  -46.6134  -15.4258  -15.0732 C   0  0  0  0  0  0  0  0  0  0  0  0
  -47.4073  -16.4842  -15.3689 C   0  0  0  0  0  0  0  0  0  0  0  0
  -46.8032  -17.6669  -15.7938 C   0  0  0  0  0  0  0  0  0  0  0  0
  -45.4171  -17.7447  -15.7892 C   0  0  0  0  0  0  0  0  0  0  0  0
  -44.8094  -17.0313  -14.7548 C   0  0  0  0  0  0  0  0  0  0  0  0
  -45.3555  -15.7641  -14.5809 C   0  0  0  0  0  0  0  0  0  0  0  0
  -43.3255  -17.2389  -14.7925 C   0  0  0  0  0  0  0  0  0  0  0  0
  -43.1660  -17.8545  -16.1564 C   0  0  0  0  0  0  0  0  0  0  0  0
  -44.4287  -18.4524  -16.4532 O   0  0  0  0  0  0  0  0  0  0  0  0
  -46.3932  -14.9749   -6.8670 C   0  0  0  0  0  0  0  0  0  0  0  0
  2  1  1  0  0  0  0
  2  3  1  0  0  0  0
  3  4  1  0  0  0  0
  4  5  1  0  0  0  0
  4  6  1  0  0  0  0
  6  7  1  0  0  0  0
  7  8  1  0  0  0  0
  8  9  1  0  0  0  0
  9 10  1  0  0  0  0
 10 11  1  0  0  0  0
 11 12  1  0  0  0  0
 12 13  1  0  0  0  0
 13 14  2  0  0  0  0
 13 15  2  0  0  0  0
 13 16  1  0  0  0  0
 16 17  2  0  0  0  0
 17 18  1  0  0  0  0
 18 19  2  0  0  0  0
 19 20  1  0  0  0  0
 20 21  2  0  0  0  0
 20 22  1  0  0  0  0
 22 23  1  0  0  0  0
 23 24  1  0  0  0  0
  7 25  1  0  0  0  0
 25  2  1  0  0  0  0
 21 16  1  0  0  0  0
 24 19  1  0  0  0  0
M  END
>  <zinc_id>  (282) 
ZINC000056067332

>  <smiles>  (282) 
C[C@H]1C[C@@H](C)CN(CCCCNS(=O)(=O)c2ccc3c(c2)CCO3)C1

>  <source_line>  (282) 
282

>  <source_data>  (282) 
ZINC000056067332

>  <source_name>  (282) 


>  <source_label>  (282) 
ZINC000056067332

>  <found_by>  (282) 
ZINC

> <Gold.Version>
5.8.1

> <Gold.Id.Protein>
ID|ID_protein|mol2

> <Gold.Goldscore.Fitness>
68.7092

> <Gold.Goldscore.Internal.Vdw>
2.0176

> <Gold.Goldscore.Internal.Torsion>
-3.4942

> <Gold.Goldscore.External.Vdw>
42.5264

> <Gold.Goldscore.Internal.HBond>
0.0000

> <Gold.Goldscore.External.HBond>
13.3361

> <Gold.Goldscore.Internal.Correction>
1.6241

> <Gold.Goldscore.Hbonds>
donor molecule, donor type, donor heavy atom, donor atom, acceptor molecule, acceptor atom, score
      P1  H   112  4464       L1    14  0.29
      P1  H   426  4822       L1    15  0.01
      P1  H   435  4829       L1    15  0.10
      P1  H   441  4839       L1    14  1.00
      P1  H  1819  6078       L1    24  0.91
      P1  H  1916  6166       L1    12  0.78

> <Gold.Goldscore.Internal.Vdw.Weighted>
2.0176

> <Gold.Goldscore.Internal.Torsion.Weighted>
-3.4942

> <Gold.Goldscore.External.Vdw.Weighted>
58.4738

> <Gold.Goldscore.Internal.HBond.Weighted>
0.0000

> <Gold.Goldscore.External.HBond.Weighted>
13.3361

> <Gold.Goldscore.Internal.Correction.Weighted>
1.6241

> <Gold.Protein.RotatedTorsions>
[ 4464  112  111  109 ] final   38.16 input   60.00 | X-H torsion
[ 4839  441  440  439 ] final  141.27 input   60.00 | X-H torsion
[ 4985  758  757  756 ] final -116.57 input   60.00 | X-H torsion
[ 5271 1023 1022 1020 ] final   42.30 input   60.00 | X-H torsion
[ 6036 1776 1775 1774 ] final   36.65 input   60.00 | X-H torsion
[ 6078 1819 1818 1817 ] final -107.19 input   60.00 | X-H torsion
[ 6166 1916 1915 1913 ] final  -67.33 input   60.00 | X-H torsion
[ 4818   65   64   63 ] final   -6.21 input   60.00 | X-H torsion
[ 6268 1997 1996 1994 ] final  105.87 input   60.00 | X-H torsion
[ 8592   72   71   70 ] final -151.35 input   60.00 | X-H torsion
[ 4356  100   99   97 ] final   84.89 input   60.00 | X-H torsion
[ 8510  202  201  200 ] final  -61.30 input   60.00 | X-H torsion
[ 5330 1065 1064 1063 ] final   43.86 input   60.00 | X-H torsion
[ 6640 2347 2346 2344 ] final   15.51 input   60.00 | X-H torsion
[ 4452  380  379  378 ] final  143.08 input   60.00 | X-H torsion
[ 4500  391  390  389 ] final  117.83 input   60.00 | X-H torsion

> <Gold.Protein.ActiveResidues>
 THR8    THR9    PRO10   ILE11   TYR12   TYR13   VAL14   ASN15   ALA16   HIS19  
 HIS22   SER25   VAL29   MET46   THR47   GLY48   THR49   ASP50   GLU51   HIS52  
 GLY53   GLN54   LYS55   VAL56   ALA57   GLU58   THR71   PHE78   ILE93   THR95  
 THR96   HIS100  GLU101  VAL104  TRP108  TYR126  VAL128  SER129  ASP130  GLU131 
 SER132  LEU210  SER211  ILE212  SER213  ARG214  LYS215  ARG216  SER218  VAL219 
 MET220  ASN221  TRP222  SER223  ILE224  PRO225  VAL226  HIS232  CYS233  ILE234 
 TYR235  VAL236  TRP237  LEU238  ASP239  ALA240  LEU241  PHE242  ASN243  TYR244 
 TYR245  THR246  HIS275  VAL276  VAL277  GLY278  LYS279  ASP280  ILE281  LEU282 
 LYS283  PHE284  HIS285  ALA286  ILE287  TYR288  TRP289  PRO290  PHE292  LEU304 
 TRP309 

> <Gold.Protein.RotatedAtoms>
  -32.6926   -8.4700   -5.8399 H   0  0  0  0  0  0  0  0  0  0  0  0  # atno 4356 bound_to 100 
  -30.3833   -8.4395   -8.1941 H   0  0  0  0  0  0  0  0  0  0  0  0  # atno 4452 bound_to 380 
  -45.3881  -11.9118  -15.6223 H   0  0  0  0  0  0  0  0  0  0  0  0  # atno 4464 bound_to 112 
  -35.3202  -10.4504  -16.8286 H   0  0  0  0  0  0  0  0  0  0  0  0  # atno 4500 bound_to 391 
  -30.6664  -15.4046   -2.6364 H   0  0  0  0  0  0  0  0  0  0  0  0  # atno 4818 bound_to 65  
  -47.7965  -11.5109  -13.9386 H   0  0  0  0  0  0  0  0  0  0  0  0  # atno 4839 bound_to 441 
  -48.8955  -11.2440  -12.7269 H   0  0  0  0  0  0  0  0  0  0  0  0  # atno 4840 bound_to 441 
  -49.2838  -10.8719  -14.2948 H   0  0  0  0  0  0  0  0  0  0  0  0  # atno 4841 bound_to 441 
  -38.6005  -17.2517  -16.9726 H   0  0  0  0  0  0  0  0  0  0  0  0  # atno 4985 bound_to 758 
  -54.2518  -17.8956  -14.2695 H   0  0  0  0  0  0  0  0  0  0  0  0  # atno 5271 bound_to 1023
  -54.2295  -14.9431   -8.5287 H   0  0  0  0  0  0  0  0  0  0  0  0  # atno 5330 bound_to 1065
  -54.7392  -16.2323  -18.4913 H   0  0  0  0  0  0  0  0  0  0  0  0  # atno 6036 bound_to 1776
  -45.2221  -17.8599  -18.2301 H   0  0  0  0  0  0  0  0  0  0  0  0  # atno 6078 bound_to 1819
  -49.0055  -15.0230  -11.8830 H   0  0  0  0  0  0  0  0  0  0  0  0  # atno 6166 bound_to 1916
  -35.4730  -15.4642   -5.6695 H   0  0  0  0  0  0  0  0  0  0  0  0  # atno 6268 bound_to 1997
  -49.4489  -21.4069   -1.5886 H   0  0  0  0  0  0  0  0  0  0  0  0  # atno 6640 bound_to 2347
  -35.0067   -7.1258   -1.1598 H   0  0  0  0  0  0  0  0  0  0  0  0  # atno 8510 bound_to 202 
  -32.0727   -8.5797   -5.0819 H   0  0  0  0  0  0  0  0  0  0  0  0  # atno 8592 bound_to 72  
  -44.8598  -10.8608  -16.7466 LP  0  0  0  0  0  0  0  0  0  0  0  0  # atno 8618 bound_to 112 
  -46.1601  -10.4944  -15.8293 LP  0  0  0  0  0  0  0  0  0  0  0  0  # atno 8619 bound_to 112 
  -37.9939  -17.8090  -15.5692 LP  0  0  0  0  0  0  0  0  0  0  0  0  # atno 8637 bound_to 758 
  -37.2231  -18.1182  -16.9752 LP  0  0  0  0  0  0  0  0  0  0  0  0  # atno 8638 bound_to 758 
  -54.4965  -16.4244  -13.6185 LP  0  0  0  0  0  0  0  0  0  0  0  0  # atno 8642 bound_to 1023
  -54.7228  -16.6603  -15.2184 LP  0  0  0  0  0  0  0  0  0  0  0  0  # atno 8643 bound_to 1023
  -53.3128  -16.7716  -17.9233 LP  0  0  0  0  0  0  0  0  0  0  0  0  # atno 8662 bound_to 1776
  -54.7014  -17.5108  -17.4852 LP  0  0  0  0  0  0  0  0  0  0  0  0  # atno 8663 bound_to 1776
  -46.5110  -17.8198  -19.2227 LP  0  0  0  0  0  0  0  0  0  0  0  0  # atno 8672 bound_to 1819
  -45.1607  -16.9823  -19.5991 LP  0  0  0  0  0  0  0  0  0  0  0  0  # atno 8673 bound_to 1819
  -49.7155  -15.6744  -10.5716 LP  0  0  0  0  0  0  0  0  0  0  0  0  # atno 8684 bound_to 1916
  -50.5406  -15.5548  -11.9757 LP  0  0  0  0  0  0  0  0  0  0  0  0  # atno 8685 bound_to 1916
  -30.8312  -16.8738   -3.3163 LP  0  0  0  0  0  0  0  0  0  0  0  0  # atno 8712 bound_to 65  
  -31.7823  -15.6368   -3.7978 LP  0  0  0  0  0  0  0  0  0  0  0  0  # atno 8713 bound_to 65  
  -34.2673  -15.0277   -4.6677 LP  0  0  0  0  0  0  0  0  0  0  0  0  # atno 8724 bound_to 1997
  -35.4729  -15.9882   -4.1290 LP  0  0  0  0  0  0  0  0  0  0  0  0  # atno 8725 bound_to 1997
  -31.5729   -8.9426   -3.5764 LP  0  0  0  0  0  0  0  0  0  0  0  0  # atno 8747 bound_to 72  
  -32.8754   -9.6957   -4.2111 LP  0  0  0  0  0  0  0  0  0  0  0  0  # atno 8748 bound_to 72  
  -33.2070   -7.0108   -5.3357 LP  0  0  0  0  0  0  0  0  0  0  0  0  # atno 8749 bound_to 100 
  -31.9993   -7.1210   -6.4294 LP  0  0  0  0  0  0  0  0  0  0  0  0  # atno 8750 bound_to 100 
  -35.6449   -7.3884   -2.6334 LP  0  0  0  0  0  0  0  0  0  0  0  0  # atno 8754 bound_to 202 
  -35.2271   -5.8766   -2.1790 LP  0  0  0  0  0  0  0  0  0  0  0  0  # atno 8755 bound_to 202 
  -53.8642  -16.1109   -7.4558 LP  0  0  0  0  0  0  0  0  0  0  0  0  # atno 8775 bound_to 1065
  -54.6626  -14.7720   -6.9694 LP  0  0  0  0  0  0  0  0  0  0  0  0  # atno 8776 bound_to 1065
  -49.3540  -20.4508   -2.9020 LP  0  0  0  0  0  0  0  0  0  0  0  0  # atno 8779 bound_to 2347
  -48.8891  -19.8859   -1.4421 LP  0  0  0  0  0  0  0  0  0  0  0  0  # atno 8780 bound_to 2347
  -31.2294   -9.7846   -8.5447 LP  0  0  0  0  0  0  0  0  0  0  0  0  # atno 8787 bound_to 380 
  -30.6912   -8.8188   -9.7464 LP  0  0  0  0  0  0  0  0  0  0  0  0  # atno 8788 bound_to 380 

$$$$
