unknown|11k_best|sdf|8332|dock10
  -GOLD-   3 721 1503D 1   1.00000     0.00000

 29 32  0  0  0  0  0  0  0  0  1 V2000
  -48.2427  -19.9635  -17.1705 C   0  0  0  0  0  0  0  0  0  0  0  0
  -47.7241  -19.6193  -17.0656 O   0  0  0  0  0  0  0  0  0  0  0  0
  -47.1590  -18.3734  -16.9367 C   0  0  0  0  0  0  0  0  0  0  0  0
  -45.8144  -18.2935  -16.6229 C   0  0  0  0  0  0  0  0  0  0  0  0
  -45.3112  -17.1629  -16.0089 C   0  0  0  0  0  0  0  0  0  0  0  0
  -43.9649  -17.0413  -15.7626 O   0  0  0  0  0  0  0  0  0  0  0  0
  -43.3549  -15.9802  -15.0757 C   0  0  0  0  0  0  0  0  0  0  0  0
  -46.1743  -16.1818  -15.5374 C   0  0  0  0  0  0  0  0  0  0  0  0
  -45.8601  -15.5253  -14.2608 C   0  0  0  0  0  0  0  0  0  0  0  0
  -45.2510  -14.4053  -14.0719 N   0  0  0  0  0  0  0  0  0  0  0  0
  -45.9672  -13.5744  -13.2411 O   0  0  0  0  0  0  0  0  0  0  0  0
  -47.4020  -14.1599  -13.3766 C   0  0  2  0  0  0  0  0  0  0  0  0
  -47.7366  -13.9501  -11.7916 C   0  0  0  0  0  0  0  0  0  0  0  0
  -48.0762  -12.7258  -11.7099 O   0  0  0  0  0  0  0  0  0  0  0  0
  -46.6484  -14.2742  -10.9251 N   0  0  0  0  0  0  0  0  0  0  0  0
  -46.5880  -13.9012   -9.5413 C   0  0  0  0  0  0  0  0  0  0  0  0
  -47.9231  -13.9787   -8.8655 C   0  0  0  0  0  0  0  0  0  0  0  0
  -48.9916  -13.1849   -9.2656 C   0  0  0  0  0  0  0  0  0  0  0  0
  -50.2731  -13.6887   -9.2662 C   0  0  0  0  0  0  0  0  0  0  0  0
  -50.5469  -15.0123   -8.9674 C   0  0  0  0  0  0  0  0  0  0  0  0
  -49.5389  -15.7341   -8.3867 C   0  0  0  0  0  0  0  0  0  0  0  0
  -48.2482  -15.2272   -8.3724 C   0  0  0  0  0  0  0  0  0  0  0  0
  -50.0743  -16.9828   -8.0562 O   0  0  0  0  0  0  0  0  0  0  0  0
  -51.2108  -17.2033   -8.8519 C   0  0  0  0  0  0  0  0  0  0  0  0
  -51.4994  -15.9320   -9.3899 O   0  0  0  0  0  0  0  0  0  0  0  0
  -46.7965  -15.6843  -13.0987 C   0  0  0  0  0  0  0  0  0  0  0  0
  -47.4467  -16.1958  -16.0806 C   0  0  0  0  0  0  0  0  0  0  0  0
  -47.9260  -17.2398  -16.8527 C   0  0  0  0  0  0  0  0  0  0  0  0
  -49.6800  -17.3496  -16.9888 Cl  0  0  0  0  0  0  0  0  0  0  0  0
  1  2  1  0  0  0  0
  2  3  1  0  0  0  0
  3  4  2  0  0  0  0
  4  5  1  0  0  0  0
  5  6  1  0  0  0  0
  6  7  1  0  0  0  0
  5  8  2  0  0  0  0
  8  9  1  0  0  0  0
  9 10  2  0  0  0  0
 10 11  1  0  0  0  0
 11 12  1  0  0  0  0
 12 13  1  0  0  0  0
 13 14  2  0  0  0  0
 13 15  1  0  0  0  0
 15 16  1  0  0  0  0
 16 17  1  0  0  0  0
 17 18  2  0  0  0  0
 18 19  1  0  0  0  0
 19 20  2  0  0  0  0
 20 21  1  0  0  0  0
 21 22  2  0  0  0  0
 21 23  1  0  0  0  0
 23 24  1  0  0  0  0
 24 25  1  0  0  0  0
 12 26  1  0  0  0  0
  8 27  1  0  0  0  0
 27 28  2  0  0  0  0
 28 29  1  0  0  0  0
 28  3  1  0  0  0  0
 26  9  1  0  0  0  0
 22 17  1  0  0  0  0
 25 20  1  0  0  0  0
M  END
>  <zinc_id>  (332) 
ZINC000001059914

>  <smiles>  (332) 
COc1cc(OC)c(C2=NO[C@H](C(=O)NCc3ccc4c(c3)OCO4)C2)cc1Cl

>  <source_line>  (332) 
332

>  <source_data>  (332) 
ZINC000001059914

>  <source_name>  (332) 


>  <source_label>  (332) 
ZINC000001059914

>  <found_by>  (332) 
ZINC

> <Gold.Version>
5.8.1

> <Gold.Id.Protein>
ID|ID_protein|mol2

> <Gold.Goldscore.Fitness>
66.9609

> <Gold.Goldscore.Internal.Vdw>
-1.2215

> <Gold.Goldscore.Internal.Torsion>
-13.2770

> <Gold.Goldscore.External.Vdw>
49.9635

> <Gold.Goldscore.Internal.HBond>
0.0000

> <Gold.Goldscore.External.HBond>
6.0000

> <Gold.Goldscore.Internal.Correction>
-6.7596

> <Gold.Goldscore.Hbonds>
donor molecule, donor type, donor heavy atom, donor atom, acceptor molecule, acceptor atom, score
      P1  H   441  4839       L1    14  1.00

> <Gold.Goldscore.Internal.Vdw.Weighted>
-1.2215

> <Gold.Goldscore.Internal.Torsion.Weighted>
-13.2770

> <Gold.Goldscore.External.Vdw.Weighted>
68.6998

> <Gold.Goldscore.Internal.HBond.Weighted>
0.0000

> <Gold.Goldscore.External.HBond.Weighted>
6.0000

> <Gold.Goldscore.Internal.Correction.Weighted>
-6.7596

> <Gold.Protein.RotatedTorsions>
[ 4464  112  111  109 ] final    9.75 input   60.00 | X-H torsion
[ 4839  441  440  439 ] final -141.20 input   60.00 | X-H torsion
[ 4985  758  757  756 ] final  127.28 input   60.00 | X-H torsion
[ 5271 1023 1022 1020 ] final  -48.39 input   60.00 | X-H torsion
[ 6036 1776 1775 1774 ] final  -74.34 input   60.00 | X-H torsion
[ 6078 1819 1818 1817 ] final  -21.92 input   60.00 | X-H torsion
[ 6166 1916 1915 1913 ] final   32.33 input   60.00 | X-H torsion
[ 4818   65   64   63 ] final -138.53 input   60.00 | X-H torsion
[ 6268 1997 1996 1994 ] final   49.34 input   60.00 | X-H torsion
[ 8592   72   71   70 ] final   35.98 input   60.00 | X-H torsion
[ 4356  100   99   97 ] final   56.81 input   60.00 | X-H torsion
[ 8510  202  201  200 ] final -176.34 input   60.00 | X-H torsion
[ 5330 1065 1064 1063 ] final  -93.41 input   60.00 | X-H torsion
[ 6640 2347 2346 2344 ] final  -52.07 input   60.00 | X-H torsion
[ 4452  380  379  378 ] final  152.76 input   60.00 | X-H torsion
[ 4500  391  390  389 ] final  169.28 input   60.00 | X-H torsion

> <Gold.Protein.ActiveResidues>
 THR8    THR9    PRO10   ILE11   TYR12   TYR13   VAL14   ASN15   ALA16   HIS19  
 HIS22   SER25   VAL29   MET46   THR47   GLY48   THR49   ASP50   GLU51   HIS52  
 GLY53   GLN54   LYS55   VAL56   ALA57   GLU58   THR71   PHE78   ILE93   THR95  
 THR96   HIS100  GLU101  VAL104  TRP108  TYR126  VAL128  SER129  ASP130  GLU131 
 SER132  LEU210  SER211  ILE212  SER213  ARG214  LYS215  ARG216  SER218  VAL219 
 MET220  ASN221  TRP222  SER223  ILE224  PRO225  VAL226  HIS232  CYS233  ILE234 
 TYR235  VAL236  TRP237  LEU238  ASP239  ALA240  LEU241  PHE242  ASN243  TYR244 
 TYR245  THR246  HIS275  VAL276  VAL277  GLY278  LYS279  ASP280  ILE281  LEU282 
 LYS283  PHE284  HIS285  ALA286  ILE287  TYR288  TRP289  PRO290  PHE292  LEU304 
 TRP309 

> <Gold.Protein.RotatedAtoms>
  -33.0117   -8.3303   -5.5482 H   0  0  0  0  0  0  0  0  0  0  0  0  # atno 4356 bound_to 100 
  -30.3369   -8.3546   -8.3189 H   0  0  0  0  0  0  0  0  0  0  0  0  # atno 4452 bound_to 380 
  -45.0430  -11.9128  -15.9257 H   0  0  0  0  0  0  0  0  0  0  0  0  # atno 4464 bound_to 112 
  -34.8029   -9.8314  -16.9274 H   0  0  0  0  0  0  0  0  0  0  0  0  # atno 4500 bound_to 391 
  -30.9742  -16.8751   -3.4587 H   0  0  0  0  0  0  0  0  0  0  0  0  # atno 4818 bound_to 65  
  -48.2535  -11.4839  -12.8312 H   0  0  0  0  0  0  0  0  0  0  0  0  # atno 4839 bound_to 441 
  -49.5482  -10.8562  -13.6541 H   0  0  0  0  0  0  0  0  0  0  0  0  # atno 4840 bound_to 441 
  -48.1741  -11.2867  -14.4750 H   0  0  0  0  0  0  0  0  0  0  0  0  # atno 4841 bound_to 441 
  -38.0455  -17.7728  -15.5776 H   0  0  0  0  0  0  0  0  0  0  0  0  # atno 4985 bound_to 758 
  -54.3645  -16.8498  -13.4523 H   0  0  0  0  0  0  0  0  0  0  0  0  # atno 5271 bound_to 1023
  -53.9604  -16.0400   -7.2001 H   0  0  0  0  0  0  0  0  0  0  0  0  # atno 5330 bound_to 1065
  -53.3344  -16.6589  -18.0165 H   0  0  0  0  0  0  0  0  0  0  0  0  # atno 6036 bound_to 1776
  -44.8246  -17.1025  -19.1665 H   0  0  0  0  0  0  0  0  0  0  0  0  # atno 6078 bound_to 1819
  -50.3431  -15.4166  -12.2037 H   0  0  0  0  0  0  0  0  0  0  0  0  # atno 6166 bound_to 1916
  -34.7163  -15.0184   -5.5482 H   0  0  0  0  0  0  0  0  0  0  0  0  # atno 6268 bound_to 1997
  -49.5597  -21.1970   -2.6026 H   0  0  0  0  0  0  0  0  0  0  0  0  # atno 6640 bound_to 2347
  -35.6280   -7.4445   -2.5764 H   0  0  0  0  0  0  0  0  0  0  0  0  # atno 8510 bound_to 202 
  -32.1762   -9.5065   -3.4627 H   0  0  0  0  0  0  0  0  0  0  0  0  # atno 8592 bound_to 72  
  -45.1451  -10.4973  -16.7219 LP  0  0  0  0  0  0  0  0  0  0  0  0  # atno 8618 bound_to 112 
  -46.2223  -10.8569  -15.5484 LP  0  0  0  0  0  0  0  0  0  0  0  0  # atno 8619 bound_to 112 
  -37.2010  -18.1390  -16.9196 LP  0  0  0  0  0  0  0  0  0  0  0  0  # atno 8637 bound_to 758 
  -38.5750  -17.2634  -17.0296 LP  0  0  0  0  0  0  0  0  0  0  0  0  # atno 8638 bound_to 758 
  -54.7631  -16.2858  -14.9258 LP  0  0  0  0  0  0  0  0  0  0  0  0  # atno 8642 bound_to 1023
  -54.3427  -17.8520  -14.7341 LP  0  0  0  0  0  0  0  0  0  0  0  0  # atno 8643 bound_to 1023
  -54.5665  -17.5518  -17.4396 LP  0  0  0  0  0  0  0  0  0  0  0  0  # atno 8662 bound_to 1776
  -54.8624  -16.3011  -18.4470 LP  0  0  0  0  0  0  0  0  0  0  0  0  # atno 8663 bound_to 1776
  -45.7374  -18.0811  -18.2406 LP  0  0  0  0  0  0  0  0  0  0  0  0  # atno 8672 bound_to 1819
  -46.3347  -17.4838  -19.6381 LP  0  0  0  0  0  0  0  0  0  0  0  0  # atno 8673 bound_to 1819
  -48.8822  -15.0669  -11.5780 LP  0  0  0  0  0  0  0  0  0  0  0  0  # atno 8684 bound_to 1916
  -50.0267  -15.7659  -10.6463 LP  0  0  0  0  0  0  0  0  0  0  0  0  # atno 8685 bound_to 1916
  -31.7459  -15.4630   -3.7006 LP  0  0  0  0  0  0  0  0  0  0  0  0  # atno 8712 bound_to 65  
  -30.5576  -15.5668   -2.5853 LP  0  0  0  0  0  0  0  0  0  0  0  0  # atno 8713 bound_to 65  
  -34.6263  -15.4896   -3.9933 LP  0  0  0  0  0  0  0  0  0  0  0  0  # atno 8724 bound_to 1997
  -35.8760  -15.9752   -4.9256 LP  0  0  0  0  0  0  0  0  0  0  0  0  # atno 8725 bound_to 1997
  -32.8291   -9.2808   -4.9360 LP  0  0  0  0  0  0  0  0  0  0  0  0  # atno 8747 bound_to 72  
  -31.5150   -8.4242   -4.4822 LP  0  0  0  0  0  0  0  0  0  0  0  0  # atno 8748 bound_to 72  
  -32.9512   -6.7042   -5.5591 LP  0  0  0  0  0  0  0  0  0  0  0  0  # atno 8749 bound_to 100 
  -31.9338   -7.5683   -6.4998 LP  0  0  0  0  0  0  0  0  0  0  0  0  # atno 8750 bound_to 100 
  -35.2592   -5.8931   -2.2523 LP  0  0  0  0  0  0  0  0  0  0  0  0  # atno 8754 bound_to 202 
  -34.9871   -7.0509   -1.1334 LP  0  0  0  0  0  0  0  0  0  0  0  0  # atno 8755 bound_to 202 
  -54.7063  -14.5939   -7.1852 LP  0  0  0  0  0  0  0  0  0  0  0  0  # atno 8775 bound_to 1065
  -54.0915  -15.1844   -8.5780 LP  0  0  0  0  0  0  0  0  0  0  0  0  # atno 8776 bound_to 1065
  -48.9777  -19.7181   -2.2530 LP  0  0  0  0  0  0  0  0  0  0  0  0  # atno 8779 bound_to 2347
  -49.1537  -20.8300   -1.0701 LP  0  0  0  0  0  0  0  0  0  0  0  0  # atno 8780 bound_to 2347
  -31.1929   -9.7363   -8.3977 LP  0  0  0  0  0  0  0  0  0  0  0  0  # atno 8787 bound_to 380 
  -30.7744   -8.9525   -9.7677 LP  0  0  0  0  0  0  0  0  0  0  0  0  # atno 8788 bound_to 380 

$$$$
