unknown|11k_best|sdf|8273|dock5
  -GOLD-   3 721 0353D 1   1.00000     0.00000

 29 32  0  0  0  0  0  0  0  0  1 V2000
  -49.8051  -13.8064   -4.1245 C   0  0  0  0  0  0  0  0  0  0  0  0
  -48.4668  -13.4594   -4.4689 O   0  0  0  0  0  0  0  0  0  0  0  0
  -47.7571  -14.0766   -5.4764 C   0  0  0  0  0  0  0  0  0  0  0  0
  -46.5563  -13.4924   -5.8584 C   0  0  0  0  0  0  0  0  0  0  0  0
  -46.0747  -13.6717   -7.1496 C   0  0  0  0  0  0  0  0  0  0  0  0
  -46.9085  -14.1254   -8.1648 C   0  0  0  0  0  0  0  0  0  0  0  0
  -46.9458  -13.4772   -9.4824 C   0  0  0  0  0  0  0  0  0  0  0  0
  -47.7265  -13.8956  -10.5042 N   0  0  0  0  0  0  0  0  0  0  0  0
  -47.1822  -13.5358  -11.6660 N   0  0  0  0  0  0  0  0  0  0  0  0
  -45.9221  -13.1155  -11.3970 C   0  0  0  0  0  0  0  0  0  0  0  0
  -44.6136  -12.7848  -12.5823 S   0  0  0  0  0  0  0  0  0  0  0  0
  -43.7845  -14.3644  -12.9441 C   0  0  0  0  0  0  0  0  0  0  0  0
  -44.4925  -14.9694  -14.0965 C   0  0  0  0  0  0  0  0  0  0  0  0
  -44.0018  -16.0814  -14.7687 C   0  0  0  0  0  0  0  0  0  0  0  0
  -44.7469  -16.8355  -15.6343 C   0  0  0  0  0  0  0  0  0  0  0  0
  -44.1341  -17.6637  -16.3448 O   0  0  0  0  0  0  0  0  0  0  0  0
  -46.0774  -16.5926  -15.7448 N   0  0  0  0  0  0  0  0  0  0  0  0
  -47.0123  -17.4980  -16.0144 N   0  0  0  0  0  0  0  0  0  0  0  0
  -48.0750  -16.9326  -16.6398 C   0  0  0  0  0  0  0  0  0  0  0  0
  -49.2019  -17.6239  -17.3439 C   0  0  0  0  0  0  0  0  0  0  0  0
  -50.5037  -16.9671  -16.9856 C   0  0  0  0  0  0  0  0  0  0  0  0
  -51.6758  -17.6929  -17.6080 C   0  0  0  0  0  0  0  0  0  0  0  0
  -50.4710  -15.5382  -17.4736 C   0  0  0  0  0  0  0  0  0  0  0  0
  -48.1454  -15.4604  -15.7525 S   0  0  0  0  0  0  0  0  0  0  0  0
  -46.5948  -15.5733  -15.0139 C   0  0  0  0  0  0  0  0  0  0  0  0
  -45.8394  -14.8321  -14.1668 N   0  0  0  0  0  0  0  0  0  0  0  0
  -45.9688  -12.7603  -10.0896 N   0  0  0  0  0  0  0  0  0  0  0  0
  -47.9615  -14.9275   -7.7423 C   0  0  0  0  0  0  0  0  0  0  0  0
  -48.3344  -14.9337   -6.4042 C   0  0  0  0  0  0  0  0  0  0  0  0
  1  2  1  0  0  0  0
  2  3  1  0  0  0  0
  3  4  2  0  0  0  0
  4  5  1  0  0  0  0
  5  6  2  0  0  0  0
  6  7  1  0  0  0  0
  7  8  2  0  0  0  0
  8  9  1  0  0  0  0
  9 10  1  0  0  0  0
 10 11  1  0  0  0  0
 11 12  1  0  0  0  0
 12 13  1  0  0  0  0
 13 14  2  0  0  0  0
 14 15  1  0  0  0  0
 15 16  2  0  0  0  0
 15 17  1  0  0  0  0
 17 18  1  0  0  0  0
 18 19  2  0  0  0  0
 19 20  1  0  0  0  0
 20 21  1  0  0  0  0
 21 22  1  0  0  0  0
 21 23  1  0  0  0  0
 19 24  1  0  0  0  0
 24 25  1  0  0  0  0
 25 26  2  0  0  0  0
 10 27  2  0  0  0  0
  6 28  1  0  0  0  0
 28 29  2  0  0  0  0
 29  3  1  0  0  0  0
 27  7  1  0  0  0  0
 26 13  1  0  0  0  0
 25 17  1  0  0  0  0
M  END
>  <zinc_id>  (273) 
ZINC000015731857

>  <smiles>  (273) 
COc1ccc(-c2n[nH]c(SCc3cc(=O)n4nc(CC(C)C)sc4n3)n2)cc1

>  <source_line>  (273) 
273

>  <source_data>  (273) 
ZINC000015731857

>  <source_name>  (273) 


>  <source_label>  (273) 
ZINC000015731857

>  <found_by>  (273) 
ZINC

> <Gold.Version>
5.8.1

> <Gold.Id.Protein>
ID|ID_protein|mol2

> <Gold.Goldscore.Fitness>
66.4096

> <Gold.Goldscore.Internal.Vdw>
0.7852

> <Gold.Goldscore.Internal.Torsion>
-3.2913

> <Gold.Goldscore.External.Vdw>
47.5376

> <Gold.Goldscore.Internal.HBond>
0.0000

> <Gold.Goldscore.External.HBond>
6.9089

> <Gold.Goldscore.Internal.Correction>
3.3573

> <Gold.Goldscore.Hbonds>
donor molecule, donor type, donor heavy atom, donor atom, acceptor molecule, acceptor atom, score
      P1  H   441  4839       L1     9  0.37
      P1  H  1916  6166       L1     8  0.95
      P1  H  1916  6166       L1     9  0.21

> <Gold.Goldscore.Internal.Vdw.Weighted>
0.7852

> <Gold.Goldscore.Internal.Torsion.Weighted>
-3.2913

> <Gold.Goldscore.External.Vdw.Weighted>
65.3642

> <Gold.Goldscore.Internal.HBond.Weighted>
0.0000

> <Gold.Goldscore.External.HBond.Weighted>
6.9089

> <Gold.Goldscore.Internal.Correction.Weighted>
3.3573

> <Gold.Protein.RotatedTorsions>
[ 4464  112  111  109 ] final  148.24 input   60.00 | X-H torsion
[ 4839  441  440  439 ] final -155.87 input   60.00 | X-H torsion
[ 4985  758  757  756 ] final  166.75 input   60.00 | X-H torsion
[ 5271 1023 1022 1020 ] final  -96.84 input   60.00 | X-H torsion
[ 6036 1776 1775 1774 ] final  -32.28 input   60.00 | X-H torsion
[ 6078 1819 1818 1817 ] final -150.25 input   60.00 | X-H torsion
[ 6166 1916 1915 1913 ] final -103.14 input   60.00 | X-H torsion
[ 4818   65   64   63 ] final   30.31 input   60.00 | X-H torsion
[ 6268 1997 1996 1994 ] final -137.31 input   60.00 | X-H torsion
[ 8592   72   71   70 ] final  -47.56 input   60.00 | X-H torsion
[ 4356  100   99   97 ] final   35.20 input   60.00 | X-H torsion
[ 8510  202  201  200 ] final  119.59 input   60.00 | X-H torsion
[ 5330 1065 1064 1063 ] final  143.99 input   60.00 | X-H torsion
[ 6640 2347 2346 2344 ] final   17.28 input   60.00 | X-H torsion
[ 4452  380  379  378 ] final -109.45 input   60.00 | X-H torsion
[ 4500  391  390  389 ] final  178.48 input   60.00 | X-H torsion

> <Gold.Protein.ActiveResidues>
 THR8    THR9    PRO10   ILE11   TYR12   TYR13   VAL14   ASN15   ALA16   HIS19  
 HIS22   SER25   VAL29   MET46   THR47   GLY48   THR49   ASP50   GLU51   HIS52  
 GLY53   GLN54   LYS55   VAL56   ALA57   GLU58   THR71   PHE78   ILE93   THR95  
 THR96   HIS100  GLU101  VAL104  TRP108  TYR126  VAL128  SER129  ASP130  GLU131 
 SER132  LEU210  SER211  ILE212  SER213  ARG214  LYS215  ARG216  SER218  VAL219 
 MET220  ASN221  TRP222  SER223  ILE224  PRO225  VAL226  HIS232  CYS233  ILE234 
 TYR235  VAL236  TRP237  LEU238  ASP239  ALA240  LEU241  PHE242  ASN243  TYR244 
 TYR245  THR246  HIS275  VAL276  VAL277  GLY278  LYS279  ASP280  ILE281  LEU282 
 LYS283  PHE284  HIS285  ALA286  ILE287  TYR288  TRP289  PRO290  PHE292  LEU304 
 TRP309 

> <Gold.Protein.RotatedAtoms>
  -33.2000   -8.0921   -5.3721 H   0  0  0  0  0  0  0  0  0  0  0  0  # atno 4356 bound_to 100 
  -30.5862   -8.6580   -9.6741 H   0  0  0  0  0  0  0  0  0  0  0  0  # atno 4452 bound_to 380 
  -46.1959  -10.6110  -15.7216 H   0  0  0  0  0  0  0  0  0  0  0  0  # atno 4464 bound_to 112 
  -34.6694   -9.7684  -16.8999 H   0  0  0  0  0  0  0  0  0  0  0  0  # atno 4500 bound_to 391 
  -31.0743  -15.0936   -2.9211 H   0  0  0  0  0  0  0  0  0  0  0  0  # atno 4818 bound_to 65  
  -48.0658  -11.5379  -12.9781 H   0  0  0  0  0  0  0  0  0  0  0  0  # atno 4839 bound_to 441 
  -49.5308  -10.8966  -13.4136 H   0  0  0  0  0  0  0  0  0  0  0  0  # atno 4840 bound_to 441 
  -48.3793  -11.1923  -14.5685 H   0  0  0  0  0  0  0  0  0  0  0  0  # atno 4841 bound_to 441 
  -38.5222  -17.4426  -15.8296 H   0  0  0  0  0  0  0  0  0  0  0  0  # atno 4985 bound_to 758 
  -54.5876  -16.2269  -13.8429 H   0  0  0  0  0  0  0  0  0  0  0  0  # atno 5271 bound_to 1023
  -54.7082  -14.5780   -7.2253 H   0  0  0  0  0  0  0  0  0  0  0  0  # atno 5330 bound_to 1065
  -53.6843  -16.2246  -18.3912 H   0  0  0  0  0  0  0  0  0  0  0  0  # atno 6036 bound_to 1776
  -45.8606  -18.1058  -18.2945 H   0  0  0  0  0  0  0  0  0  0  0  0  # atno 6078 bound_to 1819
  -48.8697  -15.1378  -11.3354 H   0  0  0  0  0  0  0  0  0  0  0  0  # atno 6166 bound_to 1916
  -35.5068  -15.9997   -4.1675 H   0  0  0  0  0  0  0  0  0  0  0  0  # atno 6268 bound_to 1997
  -49.4406  -21.3965   -1.5631 H   0  0  0  0  0  0  0  0  0  0  0  0  # atno 6640 bound_to 2347
  -35.5785   -6.4836   -2.8229 H   0  0  0  0  0  0  0  0  0  0  0  0  # atno 8510 bound_to 202 
  -32.9215   -9.6094   -4.4575 H   0  0  0  0  0  0  0  0  0  0  0  0  # atno 8592 bound_to 72  
  -45.2607  -11.9427  -15.7187 LP  0  0  0  0  0  0  0  0  0  0  0  0  # atno 8618 bound_to 112 
  -44.9456  -10.7225  -16.7572 LP  0  0  0  0  0  0  0  0  0  0  0  0  # atno 8619 bound_to 112 
  -37.1762  -18.2326  -16.2903 LP  0  0  0  0  0  0  0  0  0  0  0  0  # atno 8637 bound_to 758 
  -38.1198  -17.5024  -17.4052 LP  0  0  0  0  0  0  0  0  0  0  0  0  # atno 8638 bound_to 758 
  -54.6628  -16.9584  -15.2946 LP  0  0  0  0  0  0  0  0  0  0  0  0  # atno 8642 bound_to 1023
  -54.2184  -17.8066  -13.9718 LP  0  0  0  0  0  0  0  0  0  0  0  0  # atno 8643 bound_to 1023
  -53.8923  -17.5049  -17.4084 LP  0  0  0  0  0  0  0  0  0  0  0  0  # atno 8662 bound_to 1776
  -55.1842  -16.7853  -18.1009 LP  0  0  0  0  0  0  0  0  0  0  0  0  # atno 8663 bound_to 1776
  -46.2504  -17.4021  -19.7091 LP  0  0  0  0  0  0  0  0  0  0  0  0  # atno 8672 bound_to 1819
  -44.7783  -17.1522  -19.0479 LP  0  0  0  0  0  0  0  0  0  0  0  0  # atno 8673 bound_to 1819
  -50.2425  -15.8068  -10.7735 LP  0  0  0  0  0  0  0  0  0  0  0  0  # atno 8684 bound_to 1916
  -50.1502  -15.3068  -12.3253 LP  0  0  0  0  0  0  0  0  0  0  0  0  # atno 8685 bound_to 1916
  -30.4987  -16.6155   -2.9018 LP  0  0  0  0  0  0  0  0  0  0  0  0  # atno 8712 bound_to 65  
  -31.7040  -16.2083   -3.9255 LP  0  0  0  0  0  0  0  0  0  0  0  0  # atno 8713 bound_to 65  
  -35.4379  -15.4314   -5.6908 LP  0  0  0  0  0  0  0  0  0  0  0  0  # atno 8724 bound_to 1997
  -34.2684  -15.0452   -4.6185 LP  0  0  0  0  0  0  0  0  0  0  0  0  # atno 8725 bound_to 1997
  -31.8674   -8.4728   -4.9526 LP  0  0  0  0  0  0  0  0  0  0  0  0  # atno 8747 bound_to 72  
  -31.7260   -9.1284   -3.4637 LP  0  0  0  0  0  0  0  0  0  0  0  0  # atno 8748 bound_to 72  
  -32.6994   -6.5995   -5.7840 LP  0  0  0  0  0  0  0  0  0  0  0  0  # atno 8749 bound_to 100 
  -31.9960   -7.9130   -6.4521 LP  0  0  0  0  0  0  0  0  0  0  0  0  # atno 8750 bound_to 100 
  -34.9430   -6.1956   -1.3529 LP  0  0  0  0  0  0  0  0  0  0  0  0  # atno 8754 bound_to 202 
  -35.3531   -7.7161   -1.7847 LP  0  0  0  0  0  0  0  0  0  0  0  0  # atno 8755 bound_to 202 
  -54.0720  -15.2224   -8.5773 LP  0  0  0  0  0  0  0  0  0  0  0  0  # atno 8775 bound_to 1065
  -53.9727  -16.0282   -7.1605 LP  0  0  0  0  0  0  0  0  0  0  0  0  # atno 8776 bound_to 1065
  -49.3639  -20.4780   -2.9042 LP  0  0  0  0  0  0  0  0  0  0  0  0  # atno 8779 bound_to 2347
  -48.8875  -19.8692   -1.4658 LP  0  0  0  0  0  0  0  0  0  0  0  0  # atno 8780 bound_to 2347
  -30.4592   -8.5690   -8.0542 LP  0  0  0  0  0  0  0  0  0  0  0  0  # atno 8787 bound_to 380 
  -31.2571   -9.8144   -8.7464 LP  0  0  0  0  0  0  0  0  0  0  0  0  # atno 8788 bound_to 380 

$$$$
