unknown|11k_best|sdf|8314|dock1
  -GOLD-   3 721 1283D 1   1.00000     0.00000

 32 35  0  0  0  0  0  0  0  0  3 V2000
  -49.8659  -13.3940   -5.0496 C   0  0  0  0  0  0  0  0  0  0  0  0
  -49.0640  -14.6848   -4.9365 C   0  0  0  0  0  0  0  0  0  0  0  0
  -48.0775  -14.7395   -6.0591 C   0  0  0  0  0  0  0  0  0  0  0  0
  -46.7404  -14.5113   -5.7754 C   0  0  0  0  0  0  0  0  0  0  0  0
  -45.8173  -14.2523   -6.7807 C   0  0  0  0  0  0  0  0  0  0  0  0
  -46.2640  -13.9098   -8.0506 C   0  0  0  0  0  0  0  0  0  0  0  0
  -47.6174  -13.8157   -8.2440 C   0  0  0  0  0  0  0  0  0  0  0  0
  -48.3648  -13.2372   -9.2625 C   0  0  0  0  0  0  0  0  0  0  0  0
  -47.9845  -12.0724  -10.0657 C   0  0  0  0  0  0  0  0  0  0  0  0
  -48.7527  -11.7013  -11.0038 O   0  0  0  0  0  0  0  0  0  0  0  0
  -46.5235  -11.8915  -10.3336 C   0  0  0  0  0  0  0  0  0  0  0  0
  -46.2241  -12.0438  -11.7126 O   0  0  0  0  0  0  0  0  0  0  0  0
  -46.6093  -13.1796  -12.4267 C   0  0  0  0  0  0  0  0  0  0  0  0
  -47.3573  -13.9911  -11.8083 O   0  0  0  0  0  0  0  0  0  0  0  0
  -45.9989  -13.5593  -13.7276 C   0  0  0  0  0  0  0  0  0  0  0  0
  -46.9390  -14.3252  -14.5403 N   0  0  0  0  0  0  0  0  0  0  0  0
  -48.0014  -13.7770  -15.3285 C   0  0  0  0  0  0  0  0  0  0  0  0
  -48.0635  -12.5946  -15.7816 O   0  0  0  0  0  0  0  0  0  0  0  0
  -48.7246  -14.9081  -15.9229 C   0  0  0  0  0  0  0  0  0  0  0  0
  -49.9313  -14.9642  -16.5688 C   0  0  0  0  0  0  0  0  0  0  0  0
  -50.3119  -16.1372  -17.1972 C   0  0  0  0  0  0  0  0  0  0  0  0
  -49.5438  -17.2819  -17.0226 C   0  0  0  0  0  0  0  0  0  0  0  0
  -48.2745  -17.2106  -16.4867 C   0  0  0  0  0  0  0  0  0  0  0  0
  -47.3426  -18.2826  -16.5657 N   0  3  0  0  0  0  0  0  0  0  0  0
  -46.1429  -17.9904  -16.3308 O   0  0  0  0  0  0  0  0  0  0  0  0
  -47.5716  -19.3184  -17.4446 O   0  5  0  0  0  0  0  0  0  0  0  0
  -47.9566  -16.0561  -15.7826 C   0  0  0  0  0  0  0  0  0  0  0  0
  -46.8985  -15.7275  -14.8206 C   0  0  0  0  0  0  0  0  0  0  0  0
  -46.0301  -16.5586  -14.4232 O   0  0  0  0  0  0  0  0  0  0  0  0
  -49.6177  -13.8246   -9.1344 C   0  0  0  0  0  0  0  0  0  0  0  0
  -49.6641  -14.4751   -7.9576 N   0  0  0  0  0  0  0  0  0  0  0  0
  -48.4627  -14.4870   -7.3689 C   0  0  0  0  0  0  0  0  0  0  0  0
  1  2  1  0  0  0  0
  2  3  1  0  0  0  0
  3  4  2  0  0  0  0
  4  5  1  0  0  0  0
  5  6  2  0  0  0  0
  6  7  1  0  0  0  0
  7  8  1  0  0  0  0
  8  9  1  0  0  0  0
  9 10  2  0  0  0  0
  9 11  1  0  0  0  0
 11 12  1  0  0  0  0
 12 13  1  0  0  0  0
 13 14  2  0  0  0  0
 13 15  1  0  0  0  0
 15 16  1  0  0  0  0
 16 17  1  0  0  0  0
 17 18  2  0  0  0  0
 17 19  1  0  0  0  0
 19 20  2  0  0  0  0
 20 21  1  0  0  0  0
 21 22  2  0  0  0  0
 22 23  1  0  0  0  0
 23 24  1  0  0  0  0
 24 25  2  0  0  0  0
 24 26  1  0  0  0  0
 23 27  2  0  0  0  0
 27 28  1  0  0  0  0
 28 29  2  0  0  0  0
  8 30  2  0  0  0  0
 30 31  1  0  0  0  0
 31 32  1  0  0  0  0
 32  3  1  0  0  0  0
 32  7  2  0  0  0  0
 28 16  1  0  0  0  0
 27 19  1  0  0  0  0
M  CHG  1  24   1
M  CHG  1  26  -1
M  END
>  <zinc_id>  (314) 
ZINC000009390278

>  <smiles>  (314) 
CCc1cccc2c(C(=O)COC(=O)CN3C(=O)c4cccc([N+](=O)[O-])c4C3=O)c[nH]c12

>  <source_line>  (314) 
314

>  <source_data>  (314) 
ZINC000009390278

>  <source_name>  (314) 


>  <source_label>  (314) 
ZINC000009390278

>  <found_by>  (314) 
ZINC

> <Gold.Version>
5.8.1

> <Gold.Id.Protein>
ID|ID_protein|mol2

> <Gold.Goldscore.Fitness>
70.1142

> <Gold.Goldscore.Internal.Vdw>
0.7522

> <Gold.Goldscore.Internal.Torsion>
-5.6048

> <Gold.Goldscore.External.Vdw>
44.0874

> <Gold.Goldscore.Internal.HBond>
0.0000

> <Gold.Goldscore.External.HBond>
11.0838

> <Gold.Goldscore.Internal.Correction>
-3.2628

> <Gold.Goldscore.Hbonds>
donor molecule, donor type, donor heavy atom, donor atom, acceptor molecule, acceptor atom, score
      P1  H   435  4829       L1    18  0.76
      P1  H   441  4839       L1    18  0.01
      P1  H   441  4840       L1    10  0.99
      P1  H  1819  6078       L1    26  0.77
      P1  H  1916  6166       L1    14  1.00

> <Gold.Goldscore.Internal.Vdw.Weighted>
0.7522

> <Gold.Goldscore.Internal.Torsion.Weighted>
-5.6048

> <Gold.Goldscore.External.Vdw.Weighted>
60.6202

> <Gold.Goldscore.Internal.HBond.Weighted>
0.0000

> <Gold.Goldscore.External.HBond.Weighted>
11.0838

> <Gold.Goldscore.Internal.Correction.Weighted>
-3.2628

> <Gold.Protein.RotatedTorsions>
[ 4464  112  111  109 ] final -112.46 input   60.00 | X-H torsion
[ 4839  441  440  439 ] final  124.40 input   60.00 | X-H torsion
[ 4985  758  757  756 ] final   25.62 input   60.00 | X-H torsion
[ 5271 1023 1022 1020 ] final -119.46 input   60.00 | X-H torsion
[ 6036 1776 1775 1774 ] final  -35.37 input   60.00 | X-H torsion
[ 6078 1819 1818 1817 ] final -173.72 input   60.00 | X-H torsion
[ 6166 1916 1915 1913 ] final  -86.80 input   60.00 | X-H torsion
[ 4818   65   64   63 ] final   40.46 input   60.00 | X-H torsion
[ 6268 1997 1996 1994 ] final  -95.71 input   60.00 | X-H torsion
[ 8592   72   71   70 ] final  -50.85 input   60.00 | X-H torsion
[ 4356  100   99   97 ] final -105.90 input   60.00 | X-H torsion
[ 8510  202  201  200 ] final  109.14 input   60.00 | X-H torsion
[ 5330 1065 1064 1063 ] final   18.07 input   60.00 | X-H torsion
[ 6640 2347 2346 2344 ] final  -27.30 input   60.00 | X-H torsion
[ 4452  380  379  378 ] final  138.63 input   60.00 | X-H torsion
[ 4500  391  390  389 ] final   49.38 input   60.00 | X-H torsion

> <Gold.Protein.ActiveResidues>
 THR8    THR9    PRO10   ILE11   TYR12   TYR13   VAL14   ASN15   ALA16   HIS19  
 HIS22   SER25   VAL29   MET46   THR47   GLY48   THR49   ASP50   GLU51   HIS52  
 GLY53   GLN54   LYS55   VAL56   ALA57   GLU58   THR71   PHE78   ILE93   THR95  
 THR96   HIS100  GLU101  VAL104  TRP108  TYR126  VAL128  SER129  ASP130  GLU131 
 SER132  LEU210  SER211  ILE212  SER213  ARG214  LYS215  ARG216  SER218  VAL219 
 MET220  ASN221  TRP222  SER223  ILE224  PRO225  VAL226  HIS232  CYS233  ILE234 
 TYR235  VAL236  TRP237  LEU238  ASP239  ALA240  LEU241  PHE242  ASN243  TYR244 
 TYR245  THR246  HIS275  VAL276  VAL277  GLY278  LYS279  ASP280  ILE281  LEU282 
 LYS283  PHE284  HIS285  ALA286  ILE287  TYR288  TRP289  PRO290  PHE292  LEU304 
 TRP309 

> <Gold.Protein.RotatedAtoms>
  -32.4471   -6.6305   -6.0159 H   0  0  0  0  0  0  0  0  0  0  0  0  # atno 4356 bound_to 100 
  -30.4084   -8.4842   -8.1426 H   0  0  0  0  0  0  0  0  0  0  0  0  # atno 4452 bound_to 380 
  -45.1724  -10.4774  -16.7068 H   0  0  0  0  0  0  0  0  0  0  0  0  # atno 4464 bound_to 112 
  -35.0425  -11.2815  -16.2444 H   0  0  0  0  0  0  0  0  0  0  0  0  # atno 4500 bound_to 391 
  -31.1964  -15.0661   -3.0297 H   0  0  0  0  0  0  0  0  0  0  0  0  # atno 4818 bound_to 65  
  -47.8987  -11.4356  -14.1890 H   0  0  0  0  0  0  0  0  0  0  0  0  # atno 4839 bound_to 441 
  -48.6361  -11.3495  -12.7071 H   0  0  0  0  0  0  0  0  0  0  0  0  # atno 4840 bound_to 441 
  -49.4411  -10.8417  -14.0642 H   0  0  0  0  0  0  0  0  0  0  0  0  # atno 4841 bound_to 441 
  -37.1471  -18.2056  -16.6325 H   0  0  0  0  0  0  0  0  0  0  0  0  # atno 4985 bound_to 758 
  -54.6781  -16.0991  -14.1749 H   0  0  0  0  0  0  0  0  0  0  0  0  # atno 5271 bound_to 1023
  -54.0326  -15.3103   -8.5628 H   0  0  0  0  0  0  0  0  0  0  0  0  # atno 5330 bound_to 1065
  -53.6453  -16.2477  -18.3692 H   0  0  0  0  0  0  0  0  0  0  0  0  # atno 6036 bound_to 1776
  -46.1775  -18.1174  -18.5051 H   0  0  0  0  0  0  0  0  0  0  0  0  # atno 6078 bound_to 1819
  -48.8905  -15.0685  -11.5914 H   0  0  0  0  0  0  0  0  0  0  0  0  # atno 6166 bound_to 1916
  -34.9518  -15.7253   -3.9251 H   0  0  0  0  0  0  0  0  0  0  0  0  # atno 6268 bound_to 1997
  -49.5716  -21.4077   -2.2609 H   0  0  0  0  0  0  0  0  0  0  0  0  # atno 6640 bound_to 2347
  -35.5311   -6.3307   -2.7642 H   0  0  0  0  0  0  0  0  0  0  0  0  # atno 8510 bound_to 202 
  -32.9249   -9.5870   -4.5062 H   0  0  0  0  0  0  0  0  0  0  0  0  # atno 8592 bound_to 72  
  -46.2194  -10.8888  -15.5311 LP  0  0  0  0  0  0  0  0  0  0  0  0  # atno 8618 bound_to 112 
  -45.0177  -11.9110  -15.9526 LP  0  0  0  0  0  0  0  0  0  0  0  0  # atno 8619 bound_to 112 
  -38.3891  -17.3530  -17.2479 LP  0  0  0  0  0  0  0  0  0  0  0  0  # atno 8637 bound_to 758 
  -38.2917  -17.6135  -15.6388 LP  0  0  0  0  0  0  0  0  0  0  0  0  # atno 8638 bound_to 758 
  -54.5678  -17.3132  -15.2528 LP  0  0  0  0  0  0  0  0  0  0  0  0  # atno 8642 bound_to 1023
  -54.2222  -17.5805  -13.6794 LP  0  0  0  0  0  0  0  0  0  0  0  0  # atno 8643 bound_to 1023
  -53.9395  -17.5215  -17.4001 LP  0  0  0  0  0  0  0  0  0  0  0  0  # atno 8662 bound_to 1776
  -55.1763  -16.7454  -18.1313 LP  0  0  0  0  0  0  0  0  0  0  0  0  # atno 8663 bound_to 1776
  -45.9498  -17.1950  -19.8263 LP  0  0  0  0  0  0  0  0  0  0  0  0  # atno 8672 bound_to 1819
  -44.7598  -17.3477  -18.7186 LP  0  0  0  0  0  0  0  0  0  0  0  0  # atno 8673 bound_to 1819
  -50.0140  -15.7629  -10.6409 LP  0  0  0  0  0  0  0  0  0  0  0  0  # atno 8684 bound_to 1916
  -50.3579  -15.4205  -12.2001 LP  0  0  0  0  0  0  0  0  0  0  0  0  # atno 8685 bound_to 1916
  -30.4440  -16.4914   -2.8046 LP  0  0  0  0  0  0  0  0  0  0  0  0  # atno 8712 bound_to 65  
  -31.6357  -16.3600   -3.9133 LP  0  0  0  0  0  0  0  0  0  0  0  0  # atno 8713 bound_to 65  
  -35.8220  -15.8133   -5.2973 LP  0  0  0  0  0  0  0  0  0  0  0  0  # atno 8724 bound_to 1997
  -34.4431  -14.9396   -5.2562 LP  0  0  0  0  0  0  0  0  0  0  0  0  # atno 8725 bound_to 1997
  -31.8281   -8.4578   -4.9186 LP  0  0  0  0  0  0  0  0  0  0  0  0  # atno 8747 bound_to 72  
  -31.7619   -9.1660   -3.4487 LP  0  0  0  0  0  0  0  0  0  0  0  0  # atno 8748 bound_to 72  
  -32.1432   -8.1988   -6.3263 LP  0  0  0  0  0  0  0  0  0  0  0  0  # atno 8749 bound_to 100 
  -33.3104   -7.7855   -5.2616 LP  0  0  0  0  0  0  0  0  0  0  0  0  # atno 8750 bound_to 100 
  -34.9248   -6.3349   -1.2541 LP  0  0  0  0  0  0  0  0  0  0  0  0  # atno 8754 bound_to 202 
  -35.4191   -7.7308   -1.9425 LP  0  0  0  0  0  0  0  0  0  0  0  0  # atno 8755 bound_to 202 
  -54.0121  -15.9854   -7.0823 LP  0  0  0  0  0  0  0  0  0  0  0  0  # atno 8775 bound_to 1065
  -54.7128  -14.5278   -7.3086 LP  0  0  0  0  0  0  0  0  0  0  0  0  # atno 8776 bound_to 1065
  -49.1004  -19.8873   -2.5992 LP  0  0  0  0  0  0  0  0  0  0  0  0  # atno 8779 bound_to 2347
  -49.0191  -20.4487   -1.0679 LP  0  0  0  0  0  0  0  0  0  0  0  0  # atno 8780 bound_to 2347
  -31.2418   -9.7995   -8.6152 LP  0  0  0  0  0  0  0  0  0  0  0  0  # atno 8787 bound_to 380 
  -30.6535   -8.7589   -9.7277 LP  0  0  0  0  0  0  0  0  0  0  0  0  # atno 8788 bound_to 380 

$$$$
