unknown|11k_best|sdf|5838|dock3
  -GOLD-   3 42122123D 1   1.00000     0.00000

 31 32  0  0  0  0  0  0  0  0  1 V2000
  -45.3688  -18.5929  -16.1006 C   0  0  0  0  0  0  0  0  0  0  0  0
  -44.8031  -17.5298  -15.4278 C   0  0  0  0  0  0  0  0  0  0  0  0
  -43.4810  -17.5335  -15.0010 C   0  0  0  0  0  0  0  0  0  0  0  0
  -42.9405  -16.4301  -14.3594 C   0  0  0  0  0  0  0  0  0  0  0  0
  -41.7153  -16.2202  -14.4830 O   0  0  0  0  0  0  0  0  0  0  0  0
  -43.7778  -15.6071  -13.7638 O   0  0  0  0  0  0  0  0  0  0  0  0
  -45.0011  -15.4777  -14.2483 C   0  0  0  0  0  0  0  0  0  0  0  0
  -45.5630  -16.4262  -15.0952 C   0  0  0  0  0  0  0  0  0  0  0  0
  -46.7494  -16.1826  -15.7663 C   0  0  0  0  0  0  0  0  0  0  0  0
  -47.2968  -14.9068  -15.7102 C   0  0  0  0  0  0  0  0  0  0  0  0
  -46.7593  -13.9697  -14.8493 C   0  0  0  0  0  0  0  0  0  0  0  0
  -47.0801  -12.6145  -14.9109 O   0  0  0  0  0  0  0  0  0  0  0  0
  -45.6878  -14.2887  -14.0365 C   0  0  0  0  0  0  0  0  0  0  0  0
  -45.5433  -13.6452  -12.6956 C   0  0  0  0  0  0  0  0  0  0  0  0
  -46.8785  -13.5722  -12.1051 N   0  0  0  0  0  0  0  0  0  0  0  0
  -46.8184  -12.2406  -11.2082 C   0  0  2  0  0  0  0  0  0  0  0  0
  -45.8765  -13.0040  -10.0503 C   0  0  0  0  0  0  0  0  0  0  0  0
  -44.6790  -12.0959   -9.9703 C   0  0  0  0  0  0  0  0  0  0  0  0
  -43.4568  -12.7795  -10.5160 C   0  0  0  0  0  0  0  0  0  0  0  0
  -42.2562  -12.4034   -9.6879 C   0  0  0  0  0  0  0  0  0  0  0  0
  -41.4686  -13.5923   -9.4719 N   0  0  0  0  0  0  0  0  0  0  0  0
  -41.7715  -14.4573   -8.3938 C   0  0  0  0  0  0  0  0  0  0  0  0
  -41.0749  -15.4807   -8.2461 O   0  0  0  0  0  0  0  0  0  0  0  0
  -43.0019  -14.3800   -7.7730 O   0  0  0  0  0  0  0  0  0  0  0  0
  -43.4741  -15.3172   -6.8305 C   0  0  0  0  0  0  0  0  0  0  0  0
  -44.9225  -15.0031   -6.5464 C   0  0  0  0  0  0  0  0  0  0  0  0
  -42.6436  -15.3311   -5.5699 C   0  0  0  0  0  0  0  0  0  0  0  0
  -43.4366  -16.6773   -7.5015 C   0  0  0  0  0  0  0  0  0  0  0  0
  -48.2110  -12.6133  -10.4224 C   0  0  0  0  0  0  0  0  0  0  0  0
  -48.1474  -12.6263   -9.1922 O   0  0  0  0  0  0  0  0  0  0  0  0
  -49.3027  -12.0523  -11.0866 O   0  0  0  0  0  0  0  0  0  0  0  0
  1  2  1  0  0  0  0
  2  3  2  0  0  0  0
  3  4  1  0  0  0  0
  4  5  2  0  0  0  0
  4  6  1  0  0  0  0
  6  7  1  0  0  0  0
  7  8  2  0  0  0  0
  8  9  1  0  0  0  0
  9 10  2  0  0  0  0
 10 11  1  0  0  0  0
 11 12  1  0  0  0  0
 11 13  2  0  0  0  0
 13 14  1  0  0  0  0
 14 15  1  0  0  0  0
 16 15  1  0  0  0  0
 16 17  1  0  0  0  0
 17 18  1  0  0  0  0
 18 19  1  0  0  0  0
 19 20  1  0  0  0  0
 20 21  1  0  0  0  0
 21 22  1  0  0  0  0
 22 23  2  0  0  0  0
 22 24  1  0  0  0  0
 24 25  1  0  0  0  0
 25 26  1  0  0  0  0
 25 27  1  0  0  0  0
 25 28  1  0  0  0  0
 16 29  1  0  0  0  0
 29 30  2  0  0  0  0
 29 31  1  0  0  0  0
  8  2  1  0  0  0  0
 13  7  1  0  0  0  0
M  END
>  <zinc_id>  (838) 
ZINC000002105754

>  <smiles>  (838) 
Cc1cc(=O)oc2c(CN[C@H](CCCCNC(=O)OC(C)(C)C)C(=O)O)c(O)ccc12

>  <source_line>  (838) 
838

>  <source_data>  (838) 
ZINC000002105754

>  <source_name>  (838) 


>  <source_label>  (838) 
ZINC000002105754

>  <found_by>  (838) 
ZINC

> <Gold.Version>
5.8.1

> <Gold.Id.Protein>
ID|ID_protein|mol2

> <Gold.Goldscore.Fitness>
90.4600

> <Gold.Goldscore.Internal.Vdw>
0.6934

> <Gold.Goldscore.Internal.Torsion>
-5.1207

> <Gold.Goldscore.External.Vdw>
47.4335

> <Gold.Goldscore.Internal.HBond>
0.0000

> <Gold.Goldscore.External.HBond>
29.5700

> <Gold.Goldscore.Internal.Correction>
-0.0962

> <Gold.Goldscore.Hbonds>
donor molecule, donor type, donor heavy atom, donor atom, acceptor molecule, acceptor atom, score
      P1  H   112  4464       L1    12  1.00
      P1  H   435  4829       L1    12  0.10
      P1  H   441  4840       L1    12  0.99
      P1  H   441  4841       L1    31  0.85
      P1  H  1916  6166       L1    15  0.75

> <Gold.Goldscore.Internal.Vdw.Weighted>
0.6934

> <Gold.Goldscore.Internal.Torsion.Weighted>
-5.1207

> <Gold.Goldscore.External.Vdw.Weighted>
65.2210

> <Gold.Goldscore.Internal.HBond.Weighted>
0.0000

> <Gold.Goldscore.External.HBond.Weighted>
29.5700

> <Gold.Goldscore.Internal.Correction.Weighted>
-0.0962

> <Gold.Protein.RotatedTorsions>
[ 4464  112  111  109 ] final   81.34 input   60.00 | X-H torsion
[ 4839  441  440  439 ] final    8.70 input   60.00 | X-H torsion
[ 4985  758  757  756 ] final -111.27 input   60.00 | X-H torsion
[ 5271 1023 1022 1020 ] final   58.73 input   60.00 | X-H torsion
[ 6036 1776 1775 1774 ] final  160.84 input   60.00 | X-H torsion
[ 6078 1819 1818 1817 ] final  -40.04 input   60.00 | X-H torsion
[ 6166 1916 1915 1913 ] final  -79.71 input   60.00 | X-H torsion
[ 4818   65   64   63 ] final  116.08 input   60.00 | X-H torsion
[ 6268 1997 1996 1994 ] final  163.61 input   60.00 | X-H torsion
[ 8592   72   71   70 ] final  147.09 input   60.00 | X-H torsion
[ 4356  100   99   97 ] final -115.28 input   60.00 | X-H torsion
[ 8510  202  201  200 ] final -133.98 input   60.00 | X-H torsion
[ 5330 1065 1064 1063 ] final -130.97 input   60.00 | X-H torsion
[ 6640 2347 2346 2344 ] final  -90.31 input   60.00 | X-H torsion
[ 4452  380  379  378 ] final   49.58 input   60.00 | X-H torsion
[ 4500  391  390  389 ] final -174.86 input   60.00 | X-H torsion

> <Gold.Protein.ActiveResidues>
 THR8    THR9    PRO10   ILE11   TYR12   TYR13   VAL14   ASN15   ALA16   HIS19  
 HIS22   SER25   VAL29   MET46   THR47   GLY48   THR49   ASP50   GLU51   HIS52  
 GLY53   GLN54   LYS55   VAL56   ALA57   GLU58   THR71   PHE78   ILE93   THR95  
 THR96   HIS100  GLU101  VAL104  TRP108  TYR126  VAL128  SER129  ASP130  GLU131 
 SER132  LEU210  SER211  ILE212  SER213  ARG214  LYS215  ARG216  SER218  VAL219 
 MET220  ASN221  TRP222  SER223  ILE224  PRO225  VAL226  HIS232  CYS233  ILE234 
 TYR235  VAL236  TRP237  LEU238  ASP239  ALA240  LEU241  PHE242  ASN243  TYR244 
 TYR245  THR246  HIS275  VAL276  VAL277  GLY278  LYS279  ASP280  ILE281  LEU282 
 LYS283  PHE284  HIS285  ALA286  ILE287  TYR288  TRP289  PRO290  PHE292  LEU304 
 TRP309 

> <Gold.Protein.RotatedAtoms>
  -32.3405   -6.6813   -6.1134 H   0  0  0  0  0  0  0  0  0  0  0  0  # atno 4356 bound_to 100 
  -31.0971   -9.6015   -8.1779 H   0  0  0  0  0  0  0  0  0  0  0  0  # atno 4452 bound_to 380 
  -45.9199  -11.5457  -15.3820 H   0  0  0  0  0  0  0  0  0  0  0  0  # atno 4464 bound_to 112 
  -34.5698   -9.7350  -16.8718 H   0  0  0  0  0  0  0  0  0  0  0  0  # atno 4500 bound_to 391 
  -31.7792  -15.6724   -3.8108 H   0  0  0  0  0  0  0  0  0  0  0  0  # atno 4818 bound_to 65  
  -49.4069  -10.8464  -14.1271 H   0  0  0  0  0  0  0  0  0  0  0  0  # atno 4839 bound_to 441 
  -47.8660  -11.4569  -14.1288 H   0  0  0  0  0  0  0  0  0  0  0  0  # atno 4840 bound_to 441 
  -48.7030  -11.3235  -12.7044 H   0  0  0  0  0  0  0  0  0  0  0  0  # atno 4841 bound_to 441 
  -38.5568  -17.2701  -17.0451 H   0  0  0  0  0  0  0  0  0  0  0  0  # atno 4985 bound_to 758 
  -54.2983  -17.8971  -14.5330 H   0  0  0  0  0  0  0  0  0  0  0  0  # atno 5271 bound_to 1023
  -54.2359  -15.6752   -6.8074 H   0  0  0  0  0  0  0  0  0  0  0  0  # atno 5330 bound_to 1065
  -54.6369  -17.5286  -17.4678 H   0  0  0  0  0  0  0  0  0  0  0  0  # atno 6036 bound_to 1776
  -44.7580  -17.2315  -18.9099 H   0  0  0  0  0  0  0  0  0  0  0  0  # atno 6078 bound_to 1819
  -48.9214  -15.0469  -11.7009 H   0  0  0  0  0  0  0  0  0  0  0  0  # atno 6166 bound_to 1916
  -35.8702  -15.9440   -5.0143 H   0  0  0  0  0  0  0  0  0  0  0  0  # atno 6268 bound_to 1997
  -49.4264  -20.6708   -2.8881 H   0  0  0  0  0  0  0  0  0  0  0  0  # atno 6640 bound_to 2347
  -35.4349   -7.7229   -1.9910 H   0  0  0  0  0  0  0  0  0  0  0  0  # atno 8510 bound_to 202 
  -31.4683   -8.4582   -4.3483 H   0  0  0  0  0  0  0  0  0  0  0  0  # atno 8592 bound_to 72  
  -44.7202  -11.4858  -16.4798 LP  0  0  0  0  0  0  0  0  0  0  0  0  # atno 8618 bound_to 112 
  -45.7641  -10.2381  -16.3380 LP  0  0  0  0  0  0  0  0  0  0  0  0  # atno 8619 bound_to 112 
  -38.0676  -17.7622  -15.5732 LP  0  0  0  0  0  0  0  0  0  0  0  0  # atno 8637 bound_to 758 
  -37.1935  -18.1464  -16.8980 LP  0  0  0  0  0  0  0  0  0  0  0  0  # atno 8638 bound_to 758 
  -54.4187  -16.6503  -13.4941 LP  0  0  0  0  0  0  0  0  0  0  0  0  # atno 8642 bound_to 1023
  -54.7538  -16.4328  -15.0774 LP  0  0  0  0  0  0  0  0  0  0  0  0  # atno 8643 bound_to 1023
  -54.8002  -16.2595  -18.4732 LP  0  0  0  0  0  0  0  0  0  0  0  0  # atno 8662 bound_to 1776
  -53.3171  -16.7175  -17.9660 LP  0  0  0  0  0  0  0  0  0  0  0  0  # atno 8663 bound_to 1776
  -46.0041  -18.1243  -18.3638 LP  0  0  0  0  0  0  0  0  0  0  0  0  # atno 8672 bound_to 1819
  -46.1350  -17.3106  -19.7735 LP  0  0  0  0  0  0  0  0  0  0  0  0  # atno 8673 bound_to 1819
  -49.9070  -15.7348  -10.6039 LP  0  0  0  0  0  0  0  0  0  0  0  0  # atno 8684 bound_to 1916
  -50.4338  -15.4703  -12.1268 LP  0  0  0  0  0  0  0  0  0  0  0  0  # atno 8685 bound_to 1916
  -30.6871  -15.3732   -2.6420 LP  0  0  0  0  0  0  0  0  0  0  0  0  # atno 8712 bound_to 65  
  -30.8057  -16.8677   -3.2894 LP  0  0  0  0  0  0  0  0  0  0  0  0  # atno 8713 bound_to 65  
  -34.6447  -14.9876   -5.4953 LP  0  0  0  0  0  0  0  0  0  0  0  0  # atno 8724 bound_to 1997
  -34.6955  -15.5451   -3.9613 LP  0  0  0  0  0  0  0  0  0  0  0  0  # atno 8725 bound_to 1997
  -32.2948   -9.5790   -3.5065 LP  0  0  0  0  0  0  0  0  0  0  0  0  # atno 8747 bound_to 72  
  -32.7621   -9.1816   -5.0198 LP  0  0  0  0  0  0  0  0  0  0  0  0  # atno 8748 bound_to 72  
  -32.2312   -8.2992   -6.2492 LP  0  0  0  0  0  0  0  0  0  0  0  0  # atno 8749 bound_to 100 
  -33.3296   -7.6340   -5.2404 LP  0  0  0  0  0  0  0  0  0  0  0  0  # atno 8750 bound_to 100 
  -35.5191   -6.2839   -2.7460 LP  0  0  0  0  0  0  0  0  0  0  0  0  # atno 8754 bound_to 202 
  -34.9217   -6.3797   -1.2293 LP  0  0  0  0  0  0  0  0  0  0  0  0  # atno 8755 bound_to 202 
  -54.6596  -14.4322   -7.7684 LP  0  0  0  0  0  0  0  0  0  0  0  0  # atno 8775 bound_to 1065
  -53.8607  -15.7134   -8.3903 LP  0  0  0  0  0  0  0  0  0  0  0  0  # atno 8776 bound_to 1065
  -48.8856  -19.7713   -1.6445 LP  0  0  0  0  0  0  0  0  0  0  0  0  # atno 8779 bound_to 2347
  -49.3801  -21.3068   -1.3910 LP  0  0  0  0  0  0  0  0  0  0  0  0  # atno 8780 bound_to 2347
  -30.9174   -9.1870   -9.7412 LP  0  0  0  0  0  0  0  0  0  0  0  0  # atno 8787 bound_to 380 
  -30.2844   -8.2462   -8.5661 LP  0  0  0  0  0  0  0  0  0  0  0  0  # atno 8788 bound_to 380 

$$$$
