unknown|11k_best|sdf|8323|dock2
  -GOLD-   3 721 1403D 1   1.00000     0.00000

 30 34  0  0  0  0  0  0  0  0  1 V2000
  -48.0002  -14.4724   -6.1550 C   0  0  0  0  0  0  0  0  0  0  0  0
  -48.0984  -13.7386   -7.4546 C   0  0  0  0  0  0  0  0  0  0  0  0
  -49.1282  -12.8511   -7.7233 C   0  0  0  0  0  0  0  0  0  0  0  0
  -49.2172  -12.3824   -9.0177 C   0  0  0  0  0  0  0  0  0  0  0  0
  -48.3546  -12.7884  -10.0178 C   0  0  0  0  0  0  0  0  0  0  0  0
  -48.2072  -12.4772  -11.3282 N   0  0  0  0  0  0  0  0  0  0  0  0
  -47.2633  -13.2839  -11.8497 C   0  0  0  0  0  0  0  0  0  0  0  0
  -46.4978  -13.1260  -13.1231 C   0  0  0  0  0  0  0  0  0  0  0  0
  -46.8030  -14.3119  -13.9186 N   0  0  0  0  0  0  0  0  0  0  0  0
  -47.9104  -15.0522  -13.8913 N   0  0  0  0  0  0  0  0  0  0  0  0
  -47.9970  -15.6788  -15.0883 C   0  0  0  0  0  0  0  0  0  0  0  0
  -49.2095  -16.0740  -15.8533 C   0  0  0  0  0  0  0  0  0  0  0  0
  -49.8233  -14.8494  -16.4762 C   0  0  0  0  0  0  0  0  0  0  0  0
  -50.7229  -15.2171  -17.6277 C   0  0  0  0  0  0  0  0  0  0  0  0
  -51.2515  -16.5641  -17.4992 N   0  0  0  0  0  0  0  0  0  0  0  0
  -50.1944  -17.5467  -17.5442 C   0  0  0  0  0  0  0  0  0  0  0  0
  -48.9041  -17.0588  -16.9481 C   0  0  0  0  0  0  0  0  0  0  0  0
  -46.7210  -15.6894  -15.5458 N   0  0  0  0  0  0  0  0  0  0  0  0
  -46.2247  -16.5117  -16.6445 C   0  0  0  0  0  0  0  0  0  0  0  0
  -45.1323  -17.4201  -16.1756 C   0  0  0  0  0  0  0  0  0  0  0  0
  -44.3315  -16.9256  -15.1586 C   0  0  0  0  0  0  0  0  0  0  0  0
  -43.0635  -17.4359  -14.9799 C   0  0  0  0  0  0  0  0  0  0  0  0
  -42.8163  -18.6833  -15.4960 C   0  0  0  0  0  0  0  0  0  0  0  0
  -43.5694  -19.1951  -16.5421 C   0  0  0  0  0  0  0  0  0  0  0  0
  -44.6879  -18.4860  -16.9479 C   0  0  0  0  0  0  0  0  0  0  0  0
  -46.0235  -14.6877  -14.9604 C   0  0  0  0  0  0  0  0  0  0  0  0
  -45.0100  -14.0689  -15.4033 O   0  0  0  0  0  0  0  0  0  0  0  0
  -47.0938  -14.2874  -10.9104 C   0  0  0  0  0  0  0  0  0  0  0  0
  -47.4373  -13.7403   -9.7186 N   0  0  0  0  0  0  0  0  0  0  0  0
  -47.1738  -14.0504   -8.4254 C   0  0  0  0  0  0  0  0  0  0  0  0
  1  2  1  0  0  0  0
  2  3  1  0  0  0  0
  3  4  2  0  0  0  0
  4  5  1  0  0  0  0
  5  6  2  0  0  0  0
  6  7  1  0  0  0  0
  7  8  1  0  0  0  0
  8  9  1  0  0  0  0
  9 10  1  0  0  0  0
 10 11  2  0  0  0  0
 11 12  1  0  0  0  0
 12 13  1  0  0  0  0
 13 14  1  0  0  0  0
 14 15  1  0  0  0  0
 15 16  1  0  0  0  0
 16 17  1  0  0  0  0
 11 18  1  0  0  0  0
 18 19  1  0  0  0  0
 19 20  1  0  0  0  0
 20 21  2  0  0  0  0
 21 22  1  0  0  0  0
 22 23  2  0  0  0  0
 23 24  1  0  0  0  0
 24 25  2  0  0  0  0
 18 26  1  0  0  0  0
 26 27  2  0  0  0  0
  7 28  2  0  0  0  0
 28 29  1  0  0  0  0
 29 30  1  0  0  0  0
 30  2  2  0  0  0  0
 29  5  1  0  0  0  0
 26  9  1  0  0  0  0
 17 12  1  0  0  0  0
 25 20  1  0  0  0  0
M  END
>  <zinc_id>  (323) 
ZINC000071776265

>  <smiles>  (323) 
Cc1ccc2nc(Cn3nc(C4CCNCC4)n(Cc4ccccc4)c3=O)cn2c1

>  <source_line>  (323) 
323

>  <source_data>  (323) 
ZINC000071776265

>  <source_name>  (323) 


>  <source_label>  (323) 
ZINC000071776265

>  <found_by>  (323) 
ZINC

> <Gold.Version>
5.8.1

> <Gold.Id.Protein>
ID|ID_protein|mol2

> <Gold.Goldscore.Fitness>
61.2669

> <Gold.Goldscore.Internal.Vdw>
1.2059

> <Gold.Goldscore.Internal.Torsion>
-0.6244

> <Gold.Goldscore.External.Vdw>
38.3885

> <Gold.Goldscore.Internal.HBond>
0.0000

> <Gold.Goldscore.External.HBond>
12.1633

> <Gold.Goldscore.Internal.Correction>
4.2621

> <Gold.Goldscore.Hbonds>
donor molecule, donor type, donor heavy atom, donor atom, acceptor molecule, acceptor atom, score
      P1  H   112  4464       L1    27  0.39
      P1  H   441  4839       L1     6  0.97
      P1  H  1776  6036       L1    15  0.93

> <Gold.Goldscore.Internal.Vdw.Weighted>
1.2059

> <Gold.Goldscore.Internal.Torsion.Weighted>
-0.6244

> <Gold.Goldscore.External.Vdw.Weighted>
52.7841

> <Gold.Goldscore.Internal.HBond.Weighted>
0.0000

> <Gold.Goldscore.External.HBond.Weighted>
12.1633

> <Gold.Goldscore.Internal.Correction.Weighted>
4.2621

> <Gold.Protein.RotatedTorsions>
[ 4464  112  111  109 ] final   28.98 input   60.00 | X-H torsion
[ 4839  441  440  439 ] final -141.46 input   60.00 | X-H torsion
[ 4985  758  757  756 ] final  179.56 input   60.00 | X-H torsion
[ 5271 1023 1022 1020 ] final  148.38 input   60.00 | X-H torsion
[ 6036 1776 1775 1774 ] final  -82.29 input   60.00 | X-H torsion
[ 6078 1819 1818 1817 ] final  -13.17 input   60.00 | X-H torsion
[ 6166 1916 1915 1913 ] final    6.88 input   60.00 | X-H torsion
[ 4818   65   64   63 ] final  115.84 input   60.00 | X-H torsion
[ 6268 1997 1996 1994 ] final   51.92 input   60.00 | X-H torsion
[ 8592   72   71   70 ] final   91.90 input   60.00 | X-H torsion
[ 4356  100   99   97 ] final    3.17 input   60.00 | X-H torsion
[ 8510  202  201  200 ] final -111.23 input   60.00 | X-H torsion
[ 5330 1065 1064 1063 ] final  149.98 input   60.00 | X-H torsion
[ 6640 2347 2346 2344 ] final  179.71 input   60.00 | X-H torsion
[ 4452  380  379  378 ] final  171.34 input   60.00 | X-H torsion
[ 4500  391  390  389 ] final  -30.67 input   60.00 | X-H torsion

> <Gold.Protein.ActiveResidues>
 THR8    THR9    PRO10   ILE11   TYR12   TYR13   VAL14   ASN15   ALA16   HIS19  
 HIS22   SER25   VAL29   MET46   THR47   GLY48   THR49   ASP50   GLU51   HIS52  
 GLY53   GLN54   LYS55   VAL56   ALA57   GLU58   THR71   PHE78   ILE93   THR95  
 THR96   HIS100  GLU101  VAL104  TRP108  TYR126  VAL128  SER129  ASP130  GLU131 
 SER132  LEU210  SER211  ILE212  SER213  ARG214  LYS215  ARG216  SER218  VAL219 
 MET220  ASN221  TRP222  SER223  ILE224  PRO225  VAL226  HIS232  CYS233  ILE234 
 TYR235  VAL236  TRP237  LEU238  ASP239  ALA240  LEU241  PHE242  ASN243  TYR244 
 TYR245  THR246  HIS275  VAL276  VAL277  GLY278  LYS279  ASP280  ILE281  LEU282 
 LYS283  PHE284  HIS285  ALA286  ILE287  TYR288  TRP289  PRO290  PHE292  LEU304 
 TRP309 

> <Gold.Protein.RotatedAtoms>
  -33.3277   -7.6081   -5.2447 H   0  0  0  0  0  0  0  0  0  0  0  0  # atno 4356 bound_to 100 
  -30.2828   -8.2458   -8.5957 H   0  0  0  0  0  0  0  0  0  0  0  0  # atno 4452 bound_to 380 
  -45.2702  -11.9348  -15.7118 H   0  0  0  0  0  0  0  0  0  0  0  0  # atno 4464 bound_to 112 
  -33.9274  -11.0487  -15.8540 H   0  0  0  0  0  0  0  0  0  0  0  0  # atno 4500 bound_to 391 
  -31.7789  -15.6689   -3.8092 H   0  0  0  0  0  0  0  0  0  0  0  0  # atno 4818 bound_to 65  
  -48.2500  -11.4850  -12.8333 H   0  0  0  0  0  0  0  0  0  0  0  0  # atno 4839 bound_to 441 
  -49.5484  -10.8567  -13.6498 H   0  0  0  0  0  0  0  0  0  0  0  0  # atno 4840 bound_to 441 
  -48.1774  -11.2850  -14.4771 H   0  0  0  0  0  0  0  0  0  0  0  0  # atno 4841 bound_to 441 
  -38.6276  -17.3568  -15.9881 H   0  0  0  0  0  0  0  0  0  0  0  0  # atno 4985 bound_to 758 
  -54.6823  -16.8767  -15.2771 H   0  0  0  0  0  0  0  0  0  0  0  0  # atno 5271 bound_to 1023
  -54.6998  -14.6301   -7.1428 H   0  0  0  0  0  0  0  0  0  0  0  0  # atno 5330 bound_to 1065
  -53.3197  -16.7599  -17.9361 H   0  0  0  0  0  0  0  0  0  0  0  0  # atno 6036 bound_to 1776
  -44.8861  -17.0557  -19.2866 H   0  0  0  0  0  0  0  0  0  0  0  0  # atno 6078 bound_to 1819
  -50.0037  -15.2445  -12.3629 H   0  0  0  0  0  0  0  0  0  0  0  0  # atno 6166 bound_to 1916
  -34.7489  -15.0314   -5.5716 H   0  0  0  0  0  0  0  0  0  0  0  0  # atno 6268 bound_to 1997
  -48.9463  -19.7033   -2.1226 H   0  0  0  0  0  0  0  0  0  0  0  0  # atno 6640 bound_to 2347
  -35.2912   -7.6722   -1.6546 H   0  0  0  0  0  0  0  0  0  0  0  0  # atno 8510 bound_to 202 
  -31.5506   -8.9090   -3.6119 H   0  0  0  0  0  0  0  0  0  0  0  0  # atno 8592 bound_to 72  
  -44.9386  -10.7325  -16.7571 LP  0  0  0  0  0  0  0  0  0  0  0  0  # atno 8618 bound_to 112 
  -46.2000  -10.5995  -15.7286 LP  0  0  0  0  0  0  0  0  0  0  0  0  # atno 8619 bound_to 112 
  -37.2474  -18.2123  -16.0934 LP  0  0  0  0  0  0  0  0  0  0  0  0  # atno 8637 bound_to 758 
  -37.9424  -17.6091  -17.4424 LP  0  0  0  0  0  0  0  0  0  0  0  0  # atno 8638 bound_to 758 
  -54.2236  -17.8419  -14.0499 LP  0  0  0  0  0  0  0  0  0  0  0  0  # atno 8642 bound_to 1023
  -54.5623  -16.2688  -13.7723 LP  0  0  0  0  0  0  0  0  0  0  0  0  # atno 8643 bound_to 1023
  -54.6861  -17.5165  -17.4792 LP  0  0  0  0  0  0  0  0  0  0  0  0  # atno 8662 bound_to 1776
  -54.7575  -16.2346  -18.4884 LP  0  0  0  0  0  0  0  0  0  0  0  0  # atno 8663 bound_to 1776
  -45.6031  -18.0411  -18.2082 LP  0  0  0  0  0  0  0  0  0  0  0  0  # atno 8672 bound_to 1819
  -46.4070  -17.5709  -19.5496 LP  0  0  0  0  0  0  0  0  0  0  0  0  # atno 8673 bound_to 1819
  -48.8870  -15.1879  -11.1807 LP  0  0  0  0  0  0  0  0  0  0  0  0  # atno 8684 bound_to 1916
  -50.3638  -15.8182  -10.8833 LP  0  0  0  0  0  0  0  0  0  0  0  0  # atno 8685 bound_to 1916
  -30.6848  -15.3760   -2.6407 LP  0  0  0  0  0  0  0  0  0  0  0  0  # atno 8712 bound_to 65  
  -30.8083  -16.8684   -3.2921 LP  0  0  0  0  0  0  0  0  0  0  0  0  # atno 8713 bound_to 65  
  -34.5966  -15.4646   -4.0104 LP  0  0  0  0  0  0  0  0  0  0  0  0  # atno 8724 bound_to 1997
  -35.8728  -15.9871   -4.8850 LP  0  0  0  0  0  0  0  0  0  0  0  0  # atno 8725 bound_to 1997
  -32.8579   -9.7067   -4.1618 LP  0  0  0  0  0  0  0  0  0  0  0  0  # atno 8747 bound_to 72  
  -32.1162   -8.6000   -5.1061 LP  0  0  0  0  0  0  0  0  0  0  0  0  # atno 8748 bound_to 72  
  -32.3199   -6.6860   -6.1290 LP  0  0  0  0  0  0  0  0  0  0  0  0  # atno 8749 bound_to 100 
  -32.2468   -8.3138   -6.2355 LP  0  0  0  0  0  0  0  0  0  0  0  0  # atno 8750 bound_to 100 
  -35.6168   -6.6252   -2.8570 LP  0  0  0  0  0  0  0  0  0  0  0  0  # atno 8754 bound_to 202 
  -34.9687   -6.0895   -1.4571 LP  0  0  0  0  0  0  0  0  0  0  0  0  # atno 8755 bound_to 202 
  -54.1174  -15.1349   -8.5760 LP  0  0  0  0  0  0  0  0  0  0  0  0  # atno 8775 bound_to 1065
  -53.9358  -16.0632   -7.2449 LP  0  0  0  0  0  0  0  0  0  0  0  0  # atno 8776 bound_to 1065
  -49.2030  -20.9499   -1.1086 LP  0  0  0  0  0  0  0  0  0  0  0  0  # atno 8779 bound_to 2347
  -49.5462  -21.1024   -2.6978 LP  0  0  0  0  0  0  0  0  0  0  0  0  # atno 8780 bound_to 2347
  -31.0901   -9.5875   -8.1528 LP  0  0  0  0  0  0  0  0  0  0  0  0  # atno 8787 bound_to 380 
  -30.9317   -9.2110   -9.7338 LP  0  0  0  0  0  0  0  0  0  0  0  0  # atno 8788 bound_to 380 

$$$$
