unknown|11k_best|sdf|8276|dock7
  -GOLD-   3 721 0393D 1   1.00000     0.00000

 32 35  0  0  0  0  0  0  0  0  1 V2000
  -50.8936  -15.7600  -17.1714 C   0  0  0  0  0  0  0  0  0  0  0  0
  -49.4670  -16.0764  -16.8590 C   0  0  0  0  0  0  0  0  0  0  0  0
  -48.8652  -17.2542  -17.2332 C   0  0  0  0  0  0  0  0  0  0  0  0
  -47.8175  -17.7526  -16.4879 C   0  0  0  0  0  0  0  0  0  0  0  0
  -47.0497  -16.8425  -15.7734 C   0  0  0  0  0  0  0  0  0  0  0  0
  -47.5152  -15.5463  -15.5958 C   0  0  0  0  0  0  0  0  0  0  0  0
  -46.8854  -14.7112  -14.5629 C   0  0  0  0  0  0  0  0  0  0  0  0
  -47.5099  -13.8751  -13.6946 N   0  0  0  0  0  0  0  0  0  0  0  0
  -46.7467  -13.5434  -12.6853 N   0  0  0  0  0  0  0  0  0  0  0  0
  -45.5512  -13.0503  -13.0951 C   0  0  0  0  0  0  0  0  0  0  0  0
  -44.8806  -12.1088  -12.3878 N   0  0  0  0  0  0  0  0  0  0  0  0
  -45.2114  -11.8033  -11.1078 C   0  0  0  0  0  0  0  0  0  0  0  0
  -44.9503  -10.4053  -10.6845 C   0  0  0  0  0  0  0  0  0  0  0  0
  -45.4407   -9.4178  -11.5956 N   0  0  0  0  0  0  0  0  0  0  0  0
  -45.8448   -8.1097  -11.2567 C   0  0  0  0  0  0  0  0  0  0  0  0
  -46.4787   -7.4787  -12.1542 O   0  0  0  0  0  0  0  0  0  0  0  0
  -45.8733   -7.6558   -9.8308 C   0  0  0  0  0  0  0  0  0  0  0  0
  -45.6887   -6.2628   -9.7865 O   0  0  0  0  0  0  0  0  0  0  0  0
  -44.3762   -5.8001   -9.6708 C   0  0  0  0  0  0  0  0  0  0  0  0
  -43.3454   -6.7119   -9.5284 C   0  0  0  0  0  0  0  0  0  0  0  0
  -42.0512   -6.2673   -9.7641 C   0  0  0  0  0  0  0  0  0  0  0  0
  -41.7988   -5.0057  -10.2332 C   0  0  0  0  0  0  0  0  0  0  0  0
  -42.8341   -4.0874  -10.1975 C   0  0  0  0  0  0  0  0  0  0  0  0
  -44.1407   -4.4849   -9.9684 C   0  0  0  0  0  0  0  0  0  0  0  0
  -45.2638   -3.5071   -9.8475 C   0  0  0  0  0  0  0  0  0  0  0  0
  -44.9384   -2.4764   -8.7742 C   0  0  0  0  0  0  0  0  0  0  0  0
  -45.4033   -2.7628  -11.1606 C   0  0  0  0  0  0  0  0  0  0  0  0
  -46.3314  -12.4763  -10.6331 C   0  0  0  0  0  0  0  0  0  0  0  0
  -47.1221  -13.2814  -11.4081 C   0  0  0  0  0  0  0  0  0  0  0  0
  -48.2424  -13.6521  -10.9428 O   0  0  0  0  0  0  0  0  0  0  0  0
  -45.3179  -14.0012  -14.5081 S   0  0  0  0  0  0  0  0  0  0  0  0
  -48.8650  -15.3539  -15.8446 C   0  0  0  0  0  0  0  0  0  0  0  0
  1  2  1  0  0  0  0
  2  3  2  0  0  0  0
  3  4  1  0  0  0  0
  4  5  2  0  0  0  0
  5  6  1  0  0  0  0
  6  7  1  0  0  0  0
  7  8  2  0  0  0  0
  8  9  1  0  0  0  0
  9 10  1  0  0  0  0
 10 11  2  0  0  0  0
 11 12  1  0  0  0  0
 12 13  1  0  0  0  0
 13 14  1  0  0  0  0
 14 15  1  0  0  0  0
 15 16  2  0  0  0  0
 15 17  1  0  0  0  0
 17 18  1  0  0  0  0
 18 19  1  0  0  0  0
 19 20  2  0  0  0  0
 20 21  1  0  0  0  0
 21 22  2  0  0  0  0
 22 23  1  0  0  0  0
 23 24  2  0  0  0  0
 24 25  1  0  0  0  0
 25 26  1  0  0  0  0
 25 27  1  0  0  0  0
 12 28  2  0  0  0  0
 28 29  1  0  0  0  0
 29 30  2  0  0  0  0
 10 31  1  0  0  0  0
  6 32  2  0  0  0  0
 32  2  1  0  0  0  0
 31  7  1  0  0  0  0
 29  9  1  0  0  0  0
 24 19  1  0  0  0  0
M  END
>  <zinc_id>  (276) 
ZINC000041078173

>  <smiles>  (276) 
Cc1cccc(-c2nn3c(=O)cc(CNC(=O)COc4ccccc4C(C)C)nc3s2)c1

>  <source_line>  (276) 
276

>  <source_data>  (276) 
ZINC000041078173

>  <source_name>  (276) 


>  <source_label>  (276) 
ZINC000041078173

>  <found_by>  (276) 
ZINC

> <Gold.Version>
5.8.1

> <Gold.Id.Protein>
ID|ID_protein|mol2

> <Gold.Goldscore.Fitness>
63.1206

> <Gold.Goldscore.Internal.Vdw>
2.0686

> <Gold.Goldscore.Internal.Torsion>
-4.8096

> <Gold.Goldscore.External.Vdw>
47.7635

> <Gold.Goldscore.Internal.HBond>
0.0000

> <Gold.Goldscore.External.HBond>
1.6381

> <Gold.Goldscore.Internal.Correction>
1.4513

> <Gold.Goldscore.Hbonds>
donor molecule, donor type, donor heavy atom, donor atom, acceptor molecule, acceptor atom, score
      P1  H   441  4841       L1    30  0.05
      P1  H   127  4539       L1    18  0.67

> <Gold.Goldscore.Internal.Vdw.Weighted>
2.0686

> <Gold.Goldscore.Internal.Torsion.Weighted>
-4.8096

> <Gold.Goldscore.External.Vdw.Weighted>
65.6748

> <Gold.Goldscore.Internal.HBond.Weighted>
0.0000

> <Gold.Goldscore.External.HBond.Weighted>
1.6381

> <Gold.Goldscore.Internal.Correction.Weighted>
1.4513

> <Gold.Protein.RotatedTorsions>
[ 4464  112  111  109 ] final -103.38 input   60.00 | X-H torsion
[ 4839  441  440  439 ] final    1.17 input   60.00 | X-H torsion
[ 4985  758  757  756 ] final  121.79 input   60.00 | X-H torsion
[ 5271 1023 1022 1020 ] final -161.93 input   60.00 | X-H torsion
[ 6036 1776 1775 1774 ] final -108.19 input   60.00 | X-H torsion
[ 6078 1819 1818 1817 ] final   67.60 input   60.00 | X-H torsion
[ 6166 1916 1915 1913 ] final -178.91 input   60.00 | X-H torsion
[ 4818   65   64   63 ] final -155.02 input   60.00 | X-H torsion
[ 6268 1997 1996 1994 ] final -164.85 input   60.00 | X-H torsion
[ 8592   72   71   70 ] final  109.91 input   60.00 | X-H torsion
[ 4356  100   99   97 ] final  169.65 input   60.00 | X-H torsion
[ 8510  202  201  200 ] final   64.62 input   60.00 | X-H torsion
[ 5330 1065 1064 1063 ] final   44.55 input   60.00 | X-H torsion
[ 6640 2347 2346 2344 ] final  137.82 input   60.00 | X-H torsion
[ 4452  380  379  378 ] final  -81.02 input   60.00 | X-H torsion
[ 4500  391  390  389 ] final -179.71 input   60.00 | X-H torsion

> <Gold.Protein.ActiveResidues>
 THR8    THR9    PRO10   ILE11   TYR12   TYR13   VAL14   ASN15   ALA16   HIS19  
 HIS22   SER25   VAL29   MET46   THR47   GLY48   THR49   ASP50   GLU51   HIS52  
 GLY53   GLN54   LYS55   VAL56   ALA57   GLU58   THR71   PHE78   ILE93   THR95  
 THR96   HIS100  GLU101  VAL104  TRP108  TYR126  VAL128  SER129  ASP130  GLU131 
 SER132  LEU210  SER211  ILE212  SER213  ARG214  LYS215  ARG216  SER218  VAL219 
 MET220  ASN221  TRP222  SER223  ILE224  PRO225  VAL226  HIS232  CYS233  ILE234 
 TYR235  VAL236  TRP237  LEU238  ASP239  ALA240  LEU241  PHE242  ASN243  TYR244 
 TYR245  THR246  HIS275  VAL276  VAL277  GLY278  LYS279  ASP280  ILE281  LEU282 
 LYS283  PHE284  HIS285  ALA286  ILE287  TYR288  TRP289  PRO290  PHE292  LEU304 
 TRP309 

> <Gold.Protein.RotatedAtoms>
  -31.9500   -7.6844   -6.4911 H   0  0  0  0  0  0  0  0  0  0  0  0  # atno 4356 bound_to 100 
  -30.8256   -9.0408   -9.7609 H   0  0  0  0  0  0  0  0  0  0  0  0  # atno 4452 bound_to 380 
  -45.0673  -10.5776  -16.7369 H   0  0  0  0  0  0  0  0  0  0  0  0  # atno 4464 bound_to 112 
  -34.6425   -9.7582  -16.8929 H   0  0  0  0  0  0  0  0  0  0  0  0  # atno 4500 bound_to 391 
  -31.1723  -16.8210   -3.6316 H   0  0  0  0  0  0  0  0  0  0  0  0  # atno 4818 bound_to 65  
  -49.4638  -10.8394  -14.0152 H   0  0  0  0  0  0  0  0  0  0  0  0  # atno 4839 bound_to 441 
  -47.9261  -11.4186  -14.2324 H   0  0  0  0  0  0  0  0  0  0  0  0  # atno 4840 bound_to 441 
  -48.5860  -11.3687  -12.7127 H   0  0  0  0  0  0  0  0  0  0  0  0  # atno 4841 bound_to 441 
  -37.9697  -17.8206  -15.5758 H   0  0  0  0  0  0  0  0  0  0  0  0  # atno 4985 bound_to 758 
  -54.7629  -16.2309  -14.8348 H   0  0  0  0  0  0  0  0  0  0  0  0  # atno 5271 bound_to 1023
  -54.2349  -14.9340   -8.5253 H   0  0  0  0  0  0  0  0  0  0  0  0  # atno 5330 bound_to 1065
  -53.3954  -17.0887  -17.6867 H   0  0  0  0  0  0  0  0  0  0  0  0  # atno 6036 bound_to 1776
  -45.9654  -17.2096  -19.8187 H   0  0  0  0  0  0  0  0  0  0  0  0  # atno 6078 bound_to 1819
  -49.5861  -15.6269  -10.5807 H   0  0  0  0  0  0  0  0  0  0  0  0  # atno 6166 bound_to 1916
  -35.7674  -16.0448   -4.5262 H   0  0  0  0  0  0  0  0  0  0  0  0  # atno 6268 bound_to 1997
  -48.8873  -19.8699   -1.4771 H   0  0  0  0  0  0  0  0  0  0  0  0  # atno 6640 bound_to 2347
  -35.2635   -5.9037   -2.2651 H   0  0  0  0  0  0  0  0  0  0  0  0  # atno 8510 bound_to 202 
  -31.4495   -8.7208   -3.8127 H   0  0  0  0  0  0  0  0  0  0  0  0  # atno 8592 bound_to 72  
  -46.2241  -10.7604  -15.6071 LP  0  0  0  0  0  0  0  0  0  0  0  0  # atno 8618 bound_to 112 
  -45.1189  -11.9385  -15.8463 LP  0  0  0  0  0  0  0  0  0  0  0  0  # atno 8619 bound_to 112 
  -37.2335  -18.1088  -16.9982 LP  0  0  0  0  0  0  0  0  0  0  0  0  # atno 8637 bound_to 758 
  -38.6189  -17.2454  -16.9527 LP  0  0  0  0  0  0  0  0  0  0  0  0  # atno 8638 bound_to 758 
  -54.3698  -17.8100  -14.8280 LP  0  0  0  0  0  0  0  0  0  0  0  0  # atno 8642 bound_to 1023
  -54.3349  -16.9510  -13.4396 LP  0  0  0  0  0  0  0  0  0  0  0  0  # atno 8643 bound_to 1023
  -55.0067  -17.3163  -17.6680 LP  0  0  0  0  0  0  0  0  0  0  0  0  # atno 8662 bound_to 1776
  -54.3607  -16.1038  -18.5507 LP  0  0  0  0  0  0  0  0  0  0  0  0  # atno 8663 bound_to 1776
  -44.7569  -17.3355  -18.7362 LP  0  0  0  0  0  0  0  0  0  0  0  0  # atno 8672 bound_to 1819
  -46.1663  -18.1214  -18.4859 LP  0  0  0  0  0  0  0  0  0  0  0  0  # atno 8673 bound_to 1819
  -50.5925  -15.6088  -11.8593 LP  0  0  0  0  0  0  0  0  0  0  0  0  # atno 8684 bound_to 1916
  -49.0788  -15.0123  -11.9995 LP  0  0  0  0  0  0  0  0  0  0  0  0  # atno 8685 bound_to 1916
  -31.6507  -15.2684   -3.5389 LP  0  0  0  0  0  0  0  0  0  0  0  0  # atno 8712 bound_to 65  
  -30.4533  -15.8158   -2.5729 LP  0  0  0  0  0  0  0  0  0  0  0  0  # atno 8713 bound_to 65  
  -35.0648  -15.1831   -5.7144 LP  0  0  0  0  0  0  0  0  0  0  0  0  # atno 8724 bound_to 1997
  -34.3790  -15.2480   -4.2338 LP  0  0  0  0  0  0  0  0  0  0  0  0  # atno 8725 bound_to 1997
  -32.7228   -9.7302   -3.9004 LP  0  0  0  0  0  0  0  0  0  0  0  0  # atno 8747 bound_to 72  
  -32.3530   -8.7660   -5.1653 LP  0  0  0  0  0  0  0  0  0  0  0  0  # atno 8748 bound_to 72  
  -33.0830   -8.2676   -5.4790 LP  0  0  0  0  0  0  0  0  0  0  0  0  # atno 8749 bound_to 100 
  -32.8711   -6.6555   -5.6303 LP  0  0  0  0  0  0  0  0  0  0  0  0  # atno 8750 bound_to 100 
  -34.9835   -7.0360   -1.1304 LP  0  0  0  0  0  0  0  0  0  0  0  0  # atno 8754 bound_to 202 
  -35.6299   -7.4598   -2.5689 LP  0  0  0  0  0  0  0  0  0  0  0  0  # atno 8755 bound_to 202 
  -53.8612  -16.1120   -7.4666 LP  0  0  0  0  0  0  0  0  0  0  0  0  # atno 8775 bound_to 1065
  -54.6601  -14.7801   -6.9620 LP  0  0  0  0  0  0  0  0  0  0  0  0  # atno 8776 bound_to 1065
  -49.4416  -21.3981   -1.5518 LP  0  0  0  0  0  0  0  0  0  0  0  0  # atno 8779 bound_to 2347
  -49.3670  -20.4865   -2.9046 LP  0  0  0  0  0  0  0  0  0  0  0  0  # atno 8780 bound_to 2347
  -30.3123   -8.3036   -8.4040 LP  0  0  0  0  0  0  0  0  0  0  0  0  # atno 8787 bound_to 380 
  -31.1629   -9.6942   -8.3092 LP  0  0  0  0  0  0  0  0  0  0  0  0  # atno 8788 bound_to 380 

$$$$
