unknown|11k_best|sdf|8281|dock8
  -GOLD-   3 721 0453D 1   1.00000     0.00000

 28 30  0  0  0  0  0  0  0  0  1 V2000
  -44.6901  -17.6195  -15.5386 C   0  0  0  0  0  0  0  0  0  0  0  0
  -45.1008  -16.2337  -15.1912 C   0  0  0  0  0  0  0  0  0  0  0  0
  -44.1840  -15.3765  -14.6017 C   0  0  0  0  0  0  0  0  0  0  0  0
  -44.6567  -14.3449  -13.8145 C   0  0  0  0  0  0  0  0  0  0  0  0
  -46.0150  -14.1063  -13.6448 C   0  0  0  0  0  0  0  0  0  0  0  0
  -46.5103  -12.8270  -13.2320 N   0  0  0  0  0  0  0  0  0  0  0  0
  -45.5766  -11.9720  -12.5685 C   0  0  0  0  0  0  0  0  0  0  0  0
  -44.3828  -12.3915  -12.4858 O   0  0  0  0  0  0  0  0  0  0  0  0
  -46.0448  -10.7785  -11.7989 C   0  0  0  0  0  0  0  0  0  0  0  0
  -45.0480  -10.5204  -10.7608 N   0  0  0  0  0  0  0  0  0  0  0  0
  -44.8089   -9.2033  -10.2461 C   0  0  0  0  0  0  0  0  0  0  0  0
  -44.9416   -8.1746  -10.9780 O   0  0  0  0  0  0  0  0  0  0  0  0
  -43.3115   -9.3892   -9.2566 S   0  0  0  0  0  0  0  0  0  0  0  0
  -43.1869  -11.1789   -9.4403 C   0  0  0  0  0  0  0  0  0  0  0  0
  -42.2433  -11.9710   -8.9980 C   0  0  0  0  0  0  0  0  0  0  0  0
  -42.6075  -13.3132   -8.5255 C   0  0  0  0  0  0  0  0  0  0  0  0
  -41.5585  -14.1947   -8.2896 C   0  0  0  0  0  0  0  0  0  0  0  0
  -41.6233  -15.1177   -7.2519 C   0  0  0  0  0  0  0  0  0  0  0  0
  -42.6106  -15.0276   -6.2835 C   0  0  0  0  0  0  0  0  0  0  0  0
  -42.3409  -15.1743   -4.9223 O   0  0  0  0  0  0  0  0  0  0  0  0
  -43.7535  -14.3195   -6.6353 C   0  0  0  0  0  0  0  0  0  0  0  0
  -45.1418  -14.3864   -5.5625 Cl  0  0  0  0  0  0  0  0  0  0  0  0
  -43.7544  -13.5460   -7.7899 C   0  0  0  0  0  0  0  0  0  0  0  0
  -44.5467  -11.5149   -9.8896 C   0  0  0  0  0  0  0  0  0  0  0  0
  -44.9475  -12.7191   -9.8743 O   0  0  0  0  0  0  0  0  0  0  0  0
  -46.8929  -14.9464  -14.2832 C   0  0  0  0  0  0  0  0  0  0  0  0
  -46.4282  -15.8348  -15.2449 C   0  0  0  0  0  0  0  0  0  0  0  0
  -47.5476  -16.8105  -16.1768 Cl  0  0  0  0  0  0  0  0  0  0  0  0
  1  2  1  0  0  0  0
  2  3  2  0  0  0  0
  3  4  1  0  0  0  0
  4  5  2  0  0  0  0
  5  6  1  0  0  0  0
  6  7  1  0  0  0  0
  7  8  2  0  0  0  0
  7  9  1  0  0  0  0
  9 10  1  0  0  0  0
 10 11  1  0  0  0  0
 11 12  2  0  0  0  0
 11 13  1  0  0  0  0
 13 14  1  0  0  0  0
 14 15  2  0  0  0  0
 15 16  1  0  0  0  0
 16 17  2  0  0  0  0
 17 18  1  0  0  0  0
 18 19  2  0  0  0  0
 19 20  1  0  0  0  0
 19 21  1  0  0  0  0
 21 22  1  0  0  0  0
 21 23  2  0  0  0  0
 14 24  1  0  0  0  0
 24 25  2  0  0  0  0
  5 26  1  0  0  0  0
 26 27  2  0  0  0  0
 27 28  1  0  0  0  0
 27  2  1  0  0  0  0
 24 10  1  0  0  0  0
 23 16  1  0  0  0  0
M  END
>  <zinc_id>  (281) 
ZINC000409178993

>  <smiles>  (281) 
Cc1ccc(NC(=O)CN2C(=O)S/C(=C/c3ccc(O)c(Cl)c3)C2=O)cc1Cl

>  <source_line>  (281) 
281

>  <source_data>  (281) 
ZINC000409178993

>  <source_name>  (281) 


>  <source_label>  (281) 
ZINC000409178993

>  <found_by>  (281) 
ZINC

> <Gold.Version>
5.8.1

> <Gold.Id.Protein>
ID|ID_protein|mol2

> <Gold.Goldscore.Fitness>
61.1956

> <Gold.Goldscore.Internal.Vdw>
-3.2661

> <Gold.Goldscore.Internal.Torsion>
-2.6925

> <Gold.Goldscore.External.Vdw>
42.2889

> <Gold.Goldscore.Internal.HBond>
0.0000

> <Gold.Goldscore.External.HBond>
8.8762

> <Gold.Goldscore.Internal.Correction>
-0.1307

> <Gold.Goldscore.Hbonds>
donor molecule, donor type, donor heavy atom, donor atom, acceptor molecule, acceptor atom, score
      P1  H   441  4840       L1     6  0.89

> <Gold.Goldscore.Internal.Vdw.Weighted>
-3.2661

> <Gold.Goldscore.Internal.Torsion.Weighted>
-2.6925

> <Gold.Goldscore.External.Vdw.Weighted>
58.1473

> <Gold.Goldscore.Internal.HBond.Weighted>
0.0000

> <Gold.Goldscore.External.HBond.Weighted>
8.8762

> <Gold.Goldscore.Internal.Correction.Weighted>
-0.1307

> <Gold.Protein.RotatedTorsions>
[ 4464  112  111  109 ] final   -1.25 input   60.00 | X-H torsion
[ 4839  441  440  439 ] final   46.54 input   60.00 | X-H torsion
[ 4985  758  757  756 ] final -170.13 input   60.00 | X-H torsion
[ 5271 1023 1022 1020 ] final   68.05 input   60.00 | X-H torsion
[ 6036 1776 1775 1774 ] final   26.19 input   60.00 | X-H torsion
[ 6078 1819 1818 1817 ] final   52.79 input   60.00 | X-H torsion
[ 6166 1916 1915 1913 ] final  -63.58 input   60.00 | X-H torsion
[ 4818   65   64   63 ] final   -3.44 input   60.00 | X-H torsion
[ 6268 1997 1996 1994 ] final   -5.39 input   60.00 | X-H torsion
[ 8592   72   71   70 ] final  -82.14 input   60.00 | X-H torsion
[ 4356  100   99   97 ] final -148.25 input   60.00 | X-H torsion
[ 8510  202  201  200 ] final  -98.93 input   60.00 | X-H torsion
[ 5330 1065 1064 1063 ] final  -86.19 input   60.00 | X-H torsion
[ 6640 2347 2346 2344 ] final -105.03 input   60.00 | X-H torsion
[ 4452  380  379  378 ] final   -8.83 input   60.00 | X-H torsion
[ 4500  391  390  389 ] final -170.14 input   60.00 | X-H torsion

> <Gold.Protein.ActiveResidues>
 THR8    THR9    PRO10   ILE11   TYR12   TYR13   VAL14   ASN15   ALA16   HIS19  
 HIS22   SER25   VAL29   MET46   THR47   GLY48   THR49   ASP50   GLU51   HIS52  
 GLY53   GLN54   LYS55   VAL56   ALA57   GLU58   THR71   PHE78   ILE93   THR95  
 THR96   HIS100  GLU101  VAL104  TRP108  TYR126  VAL128  SER129  ASP130  GLU131 
 SER132  LEU210  SER211  ILE212  SER213  ARG214  LYS215  ARG216  SER218  VAL219 
 MET220  ASN221  TRP222  SER223  ILE224  PRO225  VAL226  HIS232  CYS233  ILE234 
 TYR235  VAL236  TRP237  LEU238  ASP239  ALA240  LEU241  PHE242  ASN243  TYR244 
 TYR245  THR246  HIS275  VAL276  VAL277  GLY278  LYS279  ASP280  ILE281  LEU282 
 LYS283  PHE284  HIS285  ALA286  ILE287  TYR288  TRP289  PRO290  PHE292  LEU304 
 TRP309 

> <Gold.Protein.RotatedAtoms>
  -32.0451   -7.0265   -6.3889 H   0  0  0  0  0  0  0  0  0  0  0  0  # atno 4356 bound_to 100 
  -31.2484   -9.7811   -9.0609 H   0  0  0  0  0  0  0  0  0  0  0  0  # atno 4452 bound_to 380 
  -44.9330  -11.8584  -16.0566 H   0  0  0  0  0  0  0  0  0  0  0  0  # atno 4464 bound_to 112 
  -34.4984   -9.7180  -16.8480 H   0  0  0  0  0  0  0  0  0  0  0  0  # atno 4500 bound_to 391 
  -30.6932  -15.3710   -2.6504 H   0  0  0  0  0  0  0  0  0  0  0  0  # atno 4818 bound_to 65  
  -48.9532  -10.9699  -14.5320 H   0  0  0  0  0  0  0  0  0  0  0  0  # atno 4839 bound_to 441 
  -47.7833  -11.5737  -13.5249 H   0  0  0  0  0  0  0  0  0  0  0  0  # atno 4840 bound_to 441 
  -49.2394  -11.0832  -12.9034 H   0  0  0  0  0  0  0  0  0  0  0  0  # atno 4841 bound_to 441 
  -38.6879  -17.3008  -16.1350 H   0  0  0  0  0  0  0  0  0  0  0  0  # atno 4985 bound_to 758 
  -54.3320  -17.8650  -14.6779 H   0  0  0  0  0  0  0  0  0  0  0  0  # atno 5271 bound_to 1023
  -53.9184  -16.0765   -7.3040 H   0  0  0  0  0  0  0  0  0  0  0  0  # atno 5330 bound_to 1065
  -54.5866  -16.1654  -18.5282 H   0  0  0  0  0  0  0  0  0  0  0  0  # atno 6036 bound_to 1776
  -45.7476  -17.1059  -19.8287 H   0  0  0  0  0  0  0  0  0  0  0  0  # atno 6078 bound_to 1819
  -49.0380  -15.0194  -11.9347 H   0  0  0  0  0  0  0  0  0  0  0  0  # atno 6166 bound_to 1916
  -34.2814  -14.9923   -4.8060 H   0  0  0  0  0  0  0  0  0  0  0  0  # atno 6268 bound_to 1997
  -49.3479  -20.4442   -2.8951 H   0  0  0  0  0  0  0  0  0  0  0  0  # atno 6640 bound_to 2347
  -35.2120   -7.5867   -1.4913 H   0  0  0  0  0  0  0  0  0  0  0  0  # atno 8510 bound_to 202 
  -32.8352   -9.3013   -4.9128 H   0  0  0  0  0  0  0  0  0  0  0  0  # atno 8592 bound_to 72  
  -45.2811  -10.3911  -16.6682 LP  0  0  0  0  0  0  0  0  0  0  0  0  # atno 8618 bound_to 112 
  -46.1971  -11.0179  -15.4703 LP  0  0  0  0  0  0  0  0  0  0  0  0  # atno 8619 bound_to 112 
  -37.3301  -18.1783  -15.9493 LP  0  0  0  0  0  0  0  0  0  0  0  0  # atno 8637 bound_to 758 
  -37.7990  -17.6995  -17.4385 LP  0  0  0  0  0  0  0  0  0  0  0  0  # atno 8638 bound_to 758 
  -54.3767  -16.7924  -13.4549 LP  0  0  0  0  0  0  0  0  0  0  0  0  # atno 8642 bound_to 1023
  -54.7619  -16.3230  -14.9707 LP  0  0  0  0  0  0  0  0  0  0  0  0  # atno 8643 bound_to 1023
  -53.3241  -16.9073  -17.8183 LP  0  0  0  0  0  0  0  0  0  0  0  0  # atno 8662 bound_to 1776
  -54.8439  -17.4425  -17.5529 LP  0  0  0  0  0  0  0  0  0  0  0  0  # atno 8663 bound_to 1776
  -44.8151  -17.4780  -18.5480 LP  0  0  0  0  0  0  0  0  0  0  0  0  # atno 8672 bound_to 1819
  -46.3274  -18.0833  -18.6639 LP  0  0  0  0  0  0  0  0  0  0  0  0  # atno 8673 bound_to 1819
  -49.6575  -15.6536  -10.5701 LP  0  0  0  0  0  0  0  0  0  0  0  0  # atno 8684 bound_to 1916
  -50.5658  -15.5793  -11.9251 LP  0  0  0  0  0  0  0  0  0  0  0  0  # atno 8685 bound_to 1916
  -30.8004  -16.8662   -3.2837 LP  0  0  0  0  0  0  0  0  0  0  0  0  # atno 8712 bound_to 65  
  -31.7861  -15.6782   -3.8163 LP  0  0  0  0  0  0  0  0  0  0  0  0  # atno 8713 bound_to 65  
  -35.3621  -15.9444   -4.0487 LP  0  0  0  0  0  0  0  0  0  0  0  0  # atno 8724 bound_to 1997
  -35.5782  -15.5467   -5.6177 LP  0  0  0  0  0  0  0  0  0  0  0  0  # atno 8725 bound_to 1997
  -31.5276   -8.4202   -4.5101 LP  0  0  0  0  0  0  0  0  0  0  0  0  # atno 8747 bound_to 72  
  -32.1527   -9.4914   -3.4478 LP  0  0  0  0  0  0  0  0  0  0  0  0  # atno 8748 bound_to 72  
  -32.6078   -8.4775   -5.9135 LP  0  0  0  0  0  0  0  0  0  0  0  0  # atno 8749 bound_to 100 
  -33.2506   -7.1080   -5.2988 LP  0  0  0  0  0  0  0  0  0  0  0  0  # atno 8750 bound_to 100 
  -35.6493   -6.8245   -2.8609 LP  0  0  0  0  0  0  0  0  0  0  0  0  # atno 8754 bound_to 202 
  -35.0159   -5.9763   -1.6176 LP  0  0  0  0  0  0  0  0  0  0  0  0  # atno 8755 bound_to 202 
  -54.6929  -14.6617   -7.0886 LP  0  0  0  0  0  0  0  0  0  0  0  0  # atno 8775 bound_to 1065
  -54.1472  -15.0798   -8.5699 LP  0  0  0  0  0  0  0  0  0  0  0  0  # atno 8776 bound_to 1065
  -48.8896  -19.8913   -1.4349 LP  0  0  0  0  0  0  0  0  0  0  0  0  # atno 8779 bound_to 2347
  -49.4551  -21.4150   -1.5936 LP  0  0  0  0  0  0  0  0  0  0  0  0  # atno 8780 bound_to 2347
  -30.4443   -8.4359   -9.4990 LP  0  0  0  0  0  0  0  0  0  0  0  0  # atno 8787 bound_to 380 
  -30.6051   -8.8164   -7.9191 LP  0  0  0  0  0  0  0  0  0  0  0  0  # atno 8788 bound_to 380 

$$$$
