unknown|11k_best|sdf|8340|dock7
  -GOLD-   3 721 1593D 1   1.00000     0.00000

 26 28  0  0  0  0  0  0  0  0  1 V2000
  -46.3259  -18.1633  -17.1919 C   0  0  0  0  0  0  0  0  0  0  0  0
  -45.3070  -17.7307  -16.2346 N   0  0  0  0  0  0  0  0  0  0  0  0
  -45.5422  -17.1330  -15.0420 C   0  0  0  0  0  0  0  0  0  0  0  0
  -46.7790  -16.8943  -14.4499 C   0  0  0  0  0  0  0  0  0  0  0  0
  -46.8761  -16.0615  -13.3674 C   0  0  0  0  0  0  0  0  0  0  0  0
  -45.9859  -15.0010  -13.2438 C   0  0  0  0  0  0  0  0  0  0  0  0
  -46.1146  -13.8388  -11.9293 S   0  0  0  0  0  0  0  0  0  0  0  0
  -44.7547  -13.7200  -11.3040 O   0  0  0  0  0  0  0  0  0  0  0  0
  -46.4856  -12.5241  -12.5316 O   0  0  0  0  0  0  0  0  0  0  0  0
  -47.3019  -14.3346  -10.7945 N   0  0  0  0  0  0  0  0  0  0  0  0
  -47.6200  -13.2826   -9.8340 C   0  0  0  0  0  0  0  0  0  0  0  0
  -48.1711  -13.8993   -8.5554 C   0  0  0  0  0  0  0  0  0  0  0  0
  -46.8184  -14.7638   -7.7249 S   0  0  0  0  0  0  0  0  0  0  0  0
  -45.2881  -13.8086   -7.7194 C   0  0  0  0  0  0  0  0  0  0  0  0
  -44.2126  -14.7056   -7.1960 C   0  0  0  0  0  0  0  0  0  0  0  0
  -44.0319  -15.9786   -7.7197 C   0  0  0  0  0  0  0  0  0  0  0  0
  -43.1146  -16.8570   -7.1643 C   0  0  0  0  0  0  0  0  0  0  0  0
  -42.4074  -16.4109   -6.0814 C   0  0  0  0  0  0  0  0  0  0  0  0
  -42.9050  -15.3684   -5.3332 C   0  0  0  0  0  0  0  0  0  0  0  0
  -43.8319  -14.5215   -5.8935 C   0  0  0  0  0  0  0  0  0  0  0  0
  -44.2434  -13.0126   -5.0887 Cl  0  0  0  0  0  0  0  0  0  0  0  0
  -44.7372  -15.2186  -13.8157 C   0  0  0  0  0  0  0  0  0  0  0  0
  -44.5232  -16.2347  -14.7410 C   0  0  0  0  0  0  0  0  0  0  0  0
  -43.1845  -17.1094  -15.3764 S   0  0  0  0  0  0  0  0  0  0  0  0
  -44.0717  -18.2932  -16.2537 C   0  0  0  0  0  0  0  0  0  0  0  0
  -43.6959  -19.3297  -16.8808 O   0  0  0  0  0  0  0  0  0  0  0  0
  1  2  1  0  0  0  0
  2  3  1  0  0  0  0
  3  4  2  0  0  0  0
  4  5  1  0  0  0  0
  5  6  2  0  0  0  0
  6  7  1  0  0  0  0
  7  8  2  0  0  0  0
  7  9  2  0  0  0  0
  7 10  1  0  0  0  0
 10 11  1  0  0  0  0
 11 12  1  0  0  0  0
 12 13  1  0  0  0  0
 13 14  1  0  0  0  0
 14 15  1  0  0  0  0
 15 16  2  0  0  0  0
 16 17  1  0  0  0  0
 17 18  2  0  0  0  0
 18 19  1  0  0  0  0
 19 20  2  0  0  0  0
 20 21  1  0  0  0  0
  6 22  1  0  0  0  0
 22 23  2  0  0  0  0
 23 24  1  0  0  0  0
 24 25  1  0  0  0  0
 25 26  2  0  0  0  0
 25  2  1  0  0  0  0
 23  3  1  0  0  0  0
 20 15  1  0  0  0  0
M  END
>  <zinc_id>  (340) 
ZINC000225672776

>  <smiles>  (340) 
Cn1c(=O)sc2cc(S(=O)(=O)NCCSCc3ccccc3Cl)ccc21

>  <source_line>  (340) 
340

>  <source_data>  (340) 
ZINC000225672776

>  <source_name>  (340) 


>  <source_label>  (340) 
ZINC000225672776

>  <found_by>  (340) 
ZINC

> <Gold.Version>
5.8.1

> <Gold.Id.Protein>
ID|ID_protein|mol2

> <Gold.Goldscore.Fitness>
70.7236

> <Gold.Goldscore.Internal.Vdw>
2.3661

> <Gold.Goldscore.Internal.Torsion>
-3.6469

> <Gold.Goldscore.External.Vdw>
47.5952

> <Gold.Goldscore.Internal.HBond>
0.0000

> <Gold.Goldscore.External.HBond>
9.8789

> <Gold.Goldscore.Internal.Correction>
3.3179

> <Gold.Goldscore.Hbonds>
donor molecule, donor type, donor heavy atom, donor atom, acceptor molecule, acceptor atom, score
      P1  H   441  4840       L1     9  1.00
      P1  H  1822  6079       L1    26  0.15
      P1  H  1916  6166       L1    10  0.60

> <Gold.Goldscore.Internal.Vdw.Weighted>
2.3661

> <Gold.Goldscore.Internal.Torsion.Weighted>
-3.6469

> <Gold.Goldscore.External.Vdw.Weighted>
65.4434

> <Gold.Goldscore.Internal.HBond.Weighted>
0.0000

> <Gold.Goldscore.External.HBond.Weighted>
9.8789

> <Gold.Goldscore.Internal.Correction.Weighted>
3.3179

> <Gold.Protein.RotatedTorsions>
[ 4464  112  111  109 ] final   36.38 input   60.00 | X-H torsion
[ 4839  441  440  439 ] final   62.90 input   60.00 | X-H torsion
[ 4985  758  757  756 ] final  115.91 input   60.00 | X-H torsion
[ 5271 1023 1022 1020 ] final   55.13 input   60.00 | X-H torsion
[ 6036 1776 1775 1774 ] final   48.83 input   60.00 | X-H torsion
[ 6078 1819 1818 1817 ] final   -4.55 input   60.00 | X-H torsion
[ 6166 1916 1915 1913 ] final -116.98 input   60.00 | X-H torsion
[ 4818   65   64   63 ] final  113.52 input   60.00 | X-H torsion
[ 6268 1997 1996 1994 ] final -163.38 input   60.00 | X-H torsion
[ 8592   72   71   70 ] final   89.28 input   60.00 | X-H torsion
[ 4356  100   99   97 ] final -175.34 input   60.00 | X-H torsion
[ 8510  202  201  200 ] final  161.85 input   60.00 | X-H torsion
[ 5330 1065 1064 1063 ] final   34.60 input   60.00 | X-H torsion
[ 6640 2347 2346 2344 ] final  -79.12 input   60.00 | X-H torsion
[ 4452  380  379  378 ] final   42.40 input   60.00 | X-H torsion
[ 4500  391  390  389 ] final   79.53 input   60.00 | X-H torsion

> <Gold.Protein.ActiveResidues>
 THR8    THR9    PRO10   ILE11   TYR12   TYR13   VAL14   ASN15   ALA16   HIS19  
 HIS22   SER25   VAL29   MET46   THR47   GLY48   THR49   ASP50   GLU51   HIS52  
 GLY53   GLN54   LYS55   VAL56   ALA57   GLU58   THR71   PHE78   ILE93   THR95  
 THR96   HIS100  GLU101  VAL104  TRP108  TYR126  VAL128  SER129  ASP130  GLU131 
 SER132  LEU210  SER211  ILE212  SER213  ARG214  LYS215  ARG216  SER218  VAL219 
 MET220  ASN221  TRP222  SER223  ILE224  PRO225  VAL226  HIS232  CYS233  ILE234 
 TYR235  VAL236  TRP237  LEU238  ASP239  ALA240  LEU241  PHE242  ASN243  TYR244 
 TYR245  THR246  HIS275  VAL276  VAL277  GLY278  LYS279  ASP280  ILE281  LEU282 
 LYS283  PHE284  HIS285  ALA286  ILE287  TYR288  TRP289  PRO290  PHE292  LEU304 
 TRP309 

> <Gold.Protein.RotatedAtoms>
  -31.9419   -7.4398   -6.4924 H   0  0  0  0  0  0  0  0  0  0  0  0  # atno 4356 bound_to 100 
  -31.1399   -9.6644   -8.2673 H   0  0  0  0  0  0  0  0  0  0  0  0  # atno 4452 bound_to 380 
  -45.3649  -11.9180  -15.6388 H   0  0  0  0  0  0  0  0  0  0  0  0  # atno 4464 bound_to 112 
  -35.3056  -10.9861  -16.5285 H   0  0  0  0  0  0  0  0  0  0  0  0  # atno 4500 bound_to 391 
  -31.7754  -15.6346   -3.7937 H   0  0  0  0  0  0  0  0  0  0  0  0  # atno 4818 bound_to 65  
  -48.7044  -11.0594  -14.5975 H   0  0  0  0  0  0  0  0  0  0  0  0  # atno 4839 bound_to 441 
  -47.8653  -11.5773  -13.2652 H   0  0  0  0  0  0  0  0  0  0  0  0  # atno 4840 bound_to 441 
  -49.4062  -10.9901  -13.0975 H   0  0  0  0  0  0  0  0  0  0  0  0  # atno 4841 bound_to 441 
  -37.8882  -17.8708  -15.5834 H   0  0  0  0  0  0  0  0  0  0  0  0  # atno 4985 bound_to 758 
  -54.2866  -17.9031  -14.4757 H   0  0  0  0  0  0  0  0  0  0  0  0  # atno 5271 bound_to 1023
  -54.1561  -15.0710   -8.5621 H   0  0  0  0  0  0  0  0  0  0  0  0  # atno 5330 bound_to 1065
  -54.8963  -16.3354  -18.4266 H   0  0  0  0  0  0  0  0  0  0  0  0  # atno 6036 bound_to 1776
  -44.9635  -17.0209  -19.3988 H   0  0  0  0  0  0  0  0  0  0  0  0  # atno 6078 bound_to 1819
  -48.9080  -15.2145  -11.1267 H   0  0  0  0  0  0  0  0  0  0  0  0  # atno 6166 bound_to 1916
  -35.7571  -16.0456   -4.5045 H   0  0  0  0  0  0  0  0  0  0  0  0  # atno 6268 bound_to 1997
  -49.4777  -20.8400   -2.8426 H   0  0  0  0  0  0  0  0  0  0  0  0  # atno 6640 bound_to 2347
  -35.6618   -7.1515   -2.7728 H   0  0  0  0  0  0  0  0  0  0  0  0  # atno 8510 bound_to 202 
  -31.5707   -8.9382   -3.5879 H   0  0  0  0  0  0  0  0  0  0  0  0  # atno 8592 bound_to 72  
  -44.8739  -10.8353  -16.7500 LP  0  0  0  0  0  0  0  0  0  0  0  0  # atno 8618 bound_to 112 
  -46.1693  -10.5137  -15.8092 LP  0  0  0  0  0  0  0  0  0  0  0  0  # atno 8619 bound_to 112 
  -37.2755  -18.0727  -17.0774 LP  0  0  0  0  0  0  0  0  0  0  0  0  # atno 8637 bound_to 758 
  -38.6589  -17.2311  -16.8660 LP  0  0  0  0  0  0  0  0  0  0  0  0  # atno 8638 bound_to 758 
  -54.4354  -16.5978  -13.5155 LP  0  0  0  0  0  0  0  0  0  0  0  0  # atno 8642 bound_to 1023
  -54.7488  -16.4792  -15.1137 LP  0  0  0  0  0  0  0  0  0  0  0  0  # atno 8643 bound_to 1023
  -53.3390  -16.6166  -18.0471 LP  0  0  0  0  0  0  0  0  0  0  0  0  # atno 8662 bound_to 1776
  -54.5171  -17.5620  -17.4266 LP  0  0  0  0  0  0  0  0  0  0  0  0  # atno 8663 bound_to 1776
  -45.4714  -17.9905  -18.1947 LP  0  0  0  0  0  0  0  0  0  0  0  0  # atno 8672 bound_to 1819
  -46.4607  -17.6565  -19.4502 LP  0  0  0  0  0  0  0  0  0  0  0  0  # atno 8673 bound_to 1819
  -50.4060  -15.8194  -10.9309 LP  0  0  0  0  0  0  0  0  0  0  0  0  # atno 8684 bound_to 1916
  -49.9482  -15.2170  -12.3781 LP  0  0  0  0  0  0  0  0  0  0  0  0  # atno 8685 bound_to 1916
  -30.6623  -15.4046   -2.6291 LP  0  0  0  0  0  0  0  0  0  0  0  0  # atno 8712 bound_to 65  
  -30.8342  -16.8744   -3.3194 LP  0  0  0  0  0  0  0  0  0  0  0  0  # atno 8713 bound_to 65  
  -35.0854  -15.1950   -5.7184 LP  0  0  0  0  0  0  0  0  0  0  0  0  # atno 8724 bound_to 1997
  -34.3687  -15.2353   -4.2516 LP  0  0  0  0  0  0  0  0  0  0  0  0  # atno 8725 bound_to 1997
  -32.8722   -9.6980   -4.2016 LP  0  0  0  0  0  0  0  0  0  0  0  0  # atno 8747 bound_to 72  
  -32.0817   -8.5793   -5.0906 LP  0  0  0  0  0  0  0  0  0  0  0  0  # atno 8748 bound_to 72  
  -32.9289   -8.3966   -5.6214 LP  0  0  0  0  0  0  0  0  0  0  0  0  # atno 8749 bound_to 100 
  -33.0334   -6.7726   -5.4866 LP  0  0  0  0  0  0  0  0  0  0  0  0  # atno 8750 bound_to 100 
  -35.1232   -5.8725   -1.9231 LP  0  0  0  0  0  0  0  0  0  0  0  0  # atno 8754 bound_to 202 
  -35.0891   -7.3665   -1.2649 LP  0  0  0  0  0  0  0  0  0  0  0  0  # atno 8755 bound_to 202 
  -53.9097  -16.0844   -7.3130 LP  0  0  0  0  0  0  0  0  0  0  0  0  # atno 8775 bound_to 1065
  -54.6910  -14.6697   -7.0785 LP  0  0  0  0  0  0  0  0  0  0  0  0  # atno 8776 bound_to 1065
  -48.8978  -19.7154   -1.8193 LP  0  0  0  0  0  0  0  0  0  0  0  0  # atno 8779 bound_to 2347
  -49.3163  -21.1922   -1.2621 LP  0  0  0  0  0  0  0  0  0  0  0  0  # atno 8780 bound_to 2347
  -30.8571   -9.0875   -9.7624 LP  0  0  0  0  0  0  0  0  0  0  0  0  # atno 8787 bound_to 380 
  -30.3015   -8.2823   -8.4549 LP  0  0  0  0  0  0  0  0  0  0  0  0  # atno 8788 bound_to 380 

$$$$
