unknown|11k_best|sdf|8296|dock9
  -GOLD-   3 721 1 43D 1   1.00000     0.00000

 31 34  0  0  0  0  0  0  0  0  1 V2000
  -48.9459  -16.4928  -17.2349 C   0  0  0  0  0  0  0  0  0  0  0  0
  -49.1067  -15.6989  -15.7624 C   0  0  1  0  0  0  0  0  0  0  0  0
  -48.7855  -14.2812  -16.4538 N   0  0  0  0  0  0  0  0  0  0  0  0
  -48.0088  -13.4910  -15.5448 C   0  0  0  0  0  0  0  0  0  0  0  0
  -47.7988  -12.2605  -15.7670 O   0  0  0  0  0  0  0  0  0  0  0  0
  -47.7727  -13.9316  -14.1339 C   0  0  0  0  0  0  0  0  0  0  0  0
  -46.5228  -13.2557  -13.5904 C   0  0  0  0  0  0  0  0  0  0  0  0
  -46.5217  -13.4923  -12.1137 C   0  0  0  0  0  0  0  0  0  0  0  0
  -47.2633  -14.4761  -11.5759 N   0  0  0  0  0  0  0  0  0  0  0  0
  -47.3493  -14.5715  -10.2308 C   0  0  0  0  0  0  0  0  0  0  0  0
  -48.3578  -15.3015   -9.6155 C   0  0  0  0  0  0  0  0  0  0  0  0
  -48.4075  -15.2648   -8.2316 C   0  0  0  0  0  0  0  0  0  0  0  0
  -47.2252  -14.9644   -7.5668 C   0  0  0  0  0  0  0  0  0  0  0  0
  -46.2334  -14.2140   -8.1865 C   0  0  0  0  0  0  0  0  0  0  0  0
  -46.4965  -13.7781   -9.4759 C   0  0  0  0  0  0  0  0  0  0  0  0
  -45.8570  -12.7307  -10.0214 N   0  0  0  0  0  0  0  0  0  0  0  0
  -45.3400  -11.7079   -9.1298 C   0  0  0  0  0  0  0  0  0  0  0  0
  -44.1829  -11.0146   -9.7986 C   0  0  0  0  0  0  0  0  0  0  0  0
  -42.8795  -11.6756   -9.4840 C   0  0  0  0  0  0  0  0  0  0  0  0
  -42.5000  -11.8164   -8.1581 C   0  0  0  0  0  0  0  0  0  0  0  0
  -41.5232  -12.7725   -7.9090 C   0  0  0  0  0  0  0  0  0  0  0  0
  -40.5927  -13.0022   -8.9089 C   0  0  0  0  0  0  0  0  0  0  0  0
  -40.6541  -12.2537  -10.0768 C   0  0  0  0  0  0  0  0  0  0  0  0
  -41.8460  -11.6388  -10.4029 C   0  0  0  0  0  0  0  0  0  0  0  0
  -46.0557  -12.4524  -11.3272 C   0  0  0  0  0  0  0  0  0  0  0  0
  -45.8863  -11.2897  -11.7973 O   0  0  0  0  0  0  0  0  0  0  0  0
  -50.7230  -15.5318  -15.9745 C   0  0  0  0  0  0  0  0  0  0  0  0
  -51.2239  -15.0559  -17.1435 C   0  0  0  0  0  0  0  0  0  0  0  0
  -52.4487  -15.5369  -17.4736 C   0  0  0  0  0  0  0  0  0  0  0  0
  -53.2183  -15.8657  -16.3624 C   0  0  0  0  0  0  0  0  0  0  0  0
  -51.9528  -16.4277  -15.3301 S   0  0  0  0  0  0  0  0  0  0  0  0
  2  1  1  0  0  0  0
  2  3  1  0  0  0  0
  3  4  1  0  0  0  0
  4  5  2  0  0  0  0
  4  6  1  0  0  0  0
  6  7  1  0  0  0  0
  7  8  1  0  0  0  0
  8  9  2  0  0  0  0
  9 10  1  0  0  0  0
 10 11  2  0  0  0  0
 11 12  1  0  0  0  0
 12 13  2  0  0  0  0
 13 14  1  0  0  0  0
 14 15  2  0  0  0  0
 15 16  1  0  0  0  0
 16 17  1  0  0  0  0
 17 18  1  0  0  0  0
 18 19  1  0  0  0  0
 19 20  2  0  0  0  0
 20 21  1  0  0  0  0
 21 22  2  0  0  0  0
 22 23  1  0  0  0  0
 23 24  2  0  0  0  0
 16 25  1  0  0  0  0
 25 26  2  0  0  0  0
  2 27  1  0  0  0  0
 27 28  2  0  0  0  0
 28 29  1  0  0  0  0
 29 30  2  0  0  0  0
 30 31  1  0  0  0  0
 25  8  1  0  0  0  0
 31 27  1  0  0  0  0
 15 10  1  0  0  0  0
 24 19  1  0  0  0  0
M  END
>  <zinc_id>  (296) 
ZINC000009762459

>  <smiles>  (296) 
C[C@@H](NC(=O)CCc1nc2ccccc2n(CCc2ccccc2)c1=O)c1cccs1

>  <source_line>  (296) 
296

>  <source_data>  (296) 
ZINC000009762459

>  <source_name>  (296) 


>  <source_label>  (296) 
ZINC000009762459

>  <found_by>  (296) 
ZINC

> <Gold.Version>
5.8.1

> <Gold.Id.Protein>
ID|ID_protein|mol2

> <Gold.Goldscore.Fitness>
62.4468

> <Gold.Goldscore.Internal.Vdw>
-0.5288

> <Gold.Goldscore.Internal.Torsion>
-2.0315

> <Gold.Goldscore.External.Vdw>
45.3354

> <Gold.Goldscore.Internal.HBond>
0.0000

> <Gold.Goldscore.External.HBond>
7.2930

> <Gold.Goldscore.Internal.Correction>
4.6222

> <Gold.Goldscore.Hbonds>
donor molecule, donor type, donor heavy atom, donor atom, acceptor molecule, acceptor atom, score
      P1  H   112  4464       L1     5  0.07
      P1  H   426  4822       L1     3  0.64
      P1  H   435  4829       L1     5  1.00
      P1  H   441  4841       L1     5  0.22

> <Gold.Goldscore.Internal.Vdw.Weighted>
-0.5288

> <Gold.Goldscore.Internal.Torsion.Weighted>
-2.0315

> <Gold.Goldscore.External.Vdw.Weighted>
62.3362

> <Gold.Goldscore.Internal.HBond.Weighted>
0.0000

> <Gold.Goldscore.External.HBond.Weighted>
7.2930

> <Gold.Goldscore.Internal.Correction.Weighted>
4.6222

> <Gold.Protein.RotatedTorsions>
[ 4464  112  111  109 ] final   93.52 input   60.00 | X-H torsion
[ 4839  441  440  439 ] final -162.96 input   60.00 | X-H torsion
[ 4985  758  757  756 ] final -170.56 input   60.00 | X-H torsion
[ 5271 1023 1022 1020 ] final   -8.92 input   60.00 | X-H torsion
[ 6036 1776 1775 1774 ] final   57.27 input   60.00 | X-H torsion
[ 6078 1819 1818 1817 ] final  110.75 input   60.00 | X-H torsion
[ 6166 1916 1915 1913 ] final   30.95 input   60.00 | X-H torsion
[ 4818   65   64   63 ] final  -42.20 input   60.00 | X-H torsion
[ 6268 1997 1996 1994 ] final    7.96 input   60.00 | X-H torsion
[ 8592   72   71   70 ] final  -48.28 input   60.00 | X-H torsion
[ 4356  100   99   97 ] final  111.99 input   60.00 | X-H torsion
[ 8510  202  201  200 ] final    2.91 input   60.00 | X-H torsion
[ 5330 1065 1064 1063 ] final   65.09 input   60.00 | X-H torsion
[ 6640 2347 2346 2344 ] final -114.89 input   60.00 | X-H torsion
[ 4452  380  379  378 ] final   43.65 input   60.00 | X-H torsion
[ 4500  391  390  389 ] final  116.77 input   60.00 | X-H torsion

> <Gold.Protein.ActiveResidues>
 THR8    THR9    PRO10   ILE11   TYR12   TYR13   VAL14   ASN15   ALA16   HIS19  
 HIS22   SER25   VAL29   MET46   THR47   GLY48   THR49   ASP50   GLU51   HIS52  
 GLY53   GLN54   LYS55   VAL56   ALA57   GLU58   THR71   PHE78   ILE93   THR95  
 THR96   HIS100  GLU101  VAL104  TRP108  TYR126  VAL128  SER129  ASP130  GLU131 
 SER132  LEU210  SER211  ILE212  SER213  ARG214  LYS215  ARG216  SER218  VAL219 
 MET220  ASN221  TRP222  SER223  ILE224  PRO225  VAL226  HIS232  CYS233  ILE234 
 TYR235  VAL236  TRP237  LEU238  ASP239  ALA240  LEU241  PHE242  ASN243  TYR244 
 TYR245  THR246  HIS275  VAL276  VAL277  GLY278  LYS279  ASP280  ILE281  LEU282 
 LYS283  PHE284  HIS285  ALA286  ILE287  TYR288  TRP289  PRO290  PHE292  LEU304 
 TRP309 

> <Gold.Protein.RotatedAtoms>
  -32.3708   -8.3963   -6.1287 H   0  0  0  0  0  0  0  0  0  0  0  0  # atno 4356 bound_to 100 
  -31.1328   -9.6542   -8.2511 H   0  0  0  0  0  0  0  0  0  0  0  0  # atno 4452 bound_to 380 
  -46.0360  -11.3844  -15.3802 H   0  0  0  0  0  0  0  0  0  0  0  0  # atno 4464 bound_to 112 
  -35.3249  -10.4658  -16.8223 H   0  0  0  0  0  0  0  0  0  0  0  0  # atno 4500 bound_to 391 
  -30.4270  -15.9294   -2.5912 H   0  0  0  0  0  0  0  0  0  0  0  0  # atno 4818 bound_to 65  
  -47.9883  -11.5565  -13.0655 H   0  0  0  0  0  0  0  0  0  0  0  0  # atno 4839 bound_to 441 
  -49.5018  -10.9236  -13.3022 H   0  0  0  0  0  0  0  0  0  0  0  0  # atno 4840 bound_to 441 
  -48.4857  -11.1468  -14.5926 H   0  0  0  0  0  0  0  0  0  0  0  0  # atno 4841 bound_to 441 
  -38.6858  -17.3028  -16.1286 H   0  0  0  0  0  0  0  0  0  0  0  0  # atno 4985 bound_to 758 
  -54.2402  -17.4540  -13.5914 H   0  0  0  0  0  0  0  0  0  0  0  0  # atno 5271 bound_to 1023
  -54.3968  -14.6877   -8.3683 H   0  0  0  0  0  0  0  0  0  0  0  0  # atno 5330 bound_to 1065
  -54.9885  -16.4204  -18.3694 H   0  0  0  0  0  0  0  0  0  0  0  0  # atno 6036 bound_to 1776
  -46.4273  -17.6115  -19.5035 H   0  0  0  0  0  0  0  0  0  0  0  0  # atno 6078 bound_to 1819
  -50.3271  -15.4069  -12.2164 H   0  0  0  0  0  0  0  0  0  0  0  0  # atno 6166 bound_to 1916
  -34.3313  -14.9532   -5.0142 H   0  0  0  0  0  0  0  0  0  0  0  0  # atno 6268 bound_to 1997
  -49.2906  -20.2967   -2.8660 H   0  0  0  0  0  0  0  0  0  0  0  0  # atno 6640 bound_to 2347
  -34.9515   -6.1601   -1.3939 H   0  0  0  0  0  0  0  0  0  0  0  0  # atno 8510 bound_to 202 
  -32.9224   -9.6046   -4.4682 H   0  0  0  0  0  0  0  0  0  0  0  0  # atno 8592 bound_to 72  
  -44.7566  -11.6368  -16.3536 LP  0  0  0  0  0  0  0  0  0  0  0  0  # atno 8618 bound_to 112 
  -45.6107  -10.2495  -16.4661 LP  0  0  0  0  0  0  0  0  0  0  0  0  # atno 8619 bound_to 112 
  -37.3262  -18.1800  -15.9550 LP  0  0  0  0  0  0  0  0  0  0  0  0  # atno 8637 bound_to 758 
  -37.8050  -17.6957  -17.4392 LP  0  0  0  0  0  0  0  0  0  0  0  0  # atno 8638 bound_to 758 
  -54.7075  -16.0792  -14.3260 LP  0  0  0  0  0  0  0  0  0  0  0  0  # atno 8642 bound_to 1023
  -54.5236  -17.4502  -15.1938 LP  0  0  0  0  0  0  0  0  0  0  0  0  # atno 8643 bound_to 1023
  -53.3814  -16.5146  -18.1311 LP  0  0  0  0  0  0  0  0  0  0  0  0  # atno 8662 bound_to 1776
  -54.3818  -17.5784  -17.4002 LP  0  0  0  0  0  0  0  0  0  0  0  0  # atno 8663 bound_to 1776
  -44.9151  -17.0329  -19.3397 LP  0  0  0  0  0  0  0  0  0  0  0  0  # atno 8672 bound_to 1819
  -45.5429  -18.0194  -18.1998 LP  0  0  0  0  0  0  0  0  0  0  0  0  # atno 8673 bound_to 1819
  -48.8780  -15.0719  -11.5562 LP  0  0  0  0  0  0  0  0  0  0  0  0  # atno 8684 bound_to 1916
  -50.0471  -15.7707  -10.6553 LP  0  0  0  0  0  0  0  0  0  0  0  0  # atno 8685 bound_to 1916
  -31.2603  -16.7813   -3.6994 LP  0  0  0  0  0  0  0  0  0  0  0  0  # atno 8712 bound_to 65  
  -31.5942  -15.2009   -3.4601 LP  0  0  0  0  0  0  0  0  0  0  0  0  # atno 8713 bound_to 65  
  -35.1808  -15.8575   -3.9613 LP  0  0  0  0  0  0  0  0  0  0  0  0  # atno 8724 bound_to 1997
  -35.7092  -15.6729   -5.4954 LP  0  0  0  0  0  0  0  0  0  0  0  0  # atno 8725 bound_to 1997
  -31.8587   -8.4694   -4.9454 LP  0  0  0  0  0  0  0  0  0  0  0  0  # atno 8747 bound_to 72  
  -31.7338   -9.1367   -3.4602 LP  0  0  0  0  0  0  0  0  0  0  0  0  # atno 8748 bound_to 72  
  -33.3259   -7.4250   -5.2386 LP  0  0  0  0  0  0  0  0  0  0  0  0  # atno 8749 bound_to 100 
  -32.2044   -6.7811   -6.2357 LP  0  0  0  0  0  0  0  0  0  0  0  0  # atno 8750 bound_to 100 
  -35.3316   -7.7050   -1.7357 LP  0  0  0  0  0  0  0  0  0  0  0  0  # atno 8754 bound_to 202 
  -35.5960   -6.5324   -2.8410 LP  0  0  0  0  0  0  0  0  0  0  0  0  # atno 8755 bound_to 202 
  -53.7994  -16.0892   -7.7964 LP  0  0  0  0  0  0  0  0  0  0  0  0  # atno 8775 bound_to 1065
  -54.5588  -15.0509   -6.7904 LP  0  0  0  0  0  0  0  0  0  0  0  0  # atno 8776 bound_to 1065
  -48.9050  -19.9976   -1.3136 LP  0  0  0  0  0  0  0  0  0  0  0  0  # atno 8779 bound_to 2347
  -49.4974  -21.4572   -1.7441 LP  0  0  0  0  0  0  0  0  0  0  0  0  # atno 8780 bound_to 2347
  -30.8677   -9.1050   -9.7598 LP  0  0  0  0  0  0  0  0  0  0  0  0  # atno 8787 bound_to 380 
  -30.2980   -8.2752   -8.4739 LP  0  0  0  0  0  0  0  0  0  0  0  0  # atno 8788 bound_to 380 

$$$$
