unknown|11k_best|sdf|8303|dock3
  -GOLD-   3 721 1143D 1   1.00000     0.00000

 29 32  0  0  0  0  0  0  0  0  1 V2000
  -47.1188  -20.1076  -17.5113 C   0  0  0  0  0  0  0  0  0  0  0  0
  -47.5566  -18.8190  -17.1223 C   0  0  0  0  0  0  0  0  0  0  0  0
  -48.8399  -18.4284  -17.4542 C   0  0  0  0  0  0  0  0  0  0  0  0
  -49.2416  -17.1489  -17.1717 C   0  0  0  0  0  0  0  0  0  0  0  0
  -48.5333  -16.2980  -16.3310 C   0  0  0  0  0  0  0  0  0  0  0  0
  -49.3333  -15.2848  -15.6256 C   0  0  0  0  0  0  0  0  0  0  0  0
  -48.9353  -13.9220  -15.9822 N   0  0  0  0  0  0  0  0  0  0  0  0
  -47.9205  -13.2997  -15.1726 C   0  0  0  0  0  0  0  0  0  0  0  0
  -47.2992  -12.4177  -15.8135 O   0  0  0  0  0  0  0  0  0  0  0  0
  -47.0003  -14.3922  -14.3949 C   0  0  1  0  0  0  0  0  0  0  0  0
  -45.7044  -13.3668  -14.4111 C   0  0  0  0  0  0  0  0  0  0  0  0
  -44.7279  -14.2171  -13.7752 N   0  0  0  0  0  0  0  0  0  0  0  0
  -44.9422  -15.6269  -14.0251 C   0  0  0  0  0  0  0  0  0  0  0  0
  -45.0898  -14.0058  -12.3803 C   0  0  0  0  0  0  0  0  0  0  0  0
  -46.5208  -13.7752  -12.1452 C   0  0  0  0  0  0  0  0  0  0  0  0
  -46.6735  -12.3506  -11.6032 C   0  0  0  0  0  0  0  0  0  0  0  0
  -47.9997  -12.2097  -10.8636 C   0  0  0  0  0  0  0  0  0  0  0  0
  -48.0818  -13.0918   -9.7312 N   0  0  0  0  0  0  0  0  0  0  0  0
  -48.2560  -12.3079   -8.5373 C   0  0  0  0  0  0  0  0  0  0  0  0
  -49.6483  -11.7582   -8.5928 C   0  0  0  0  0  0  0  0  0  0  0  0
  -50.7037  -12.2181   -7.8137 C   0  0  0  0  0  0  0  0  0  0  0  0
  -51.8875  -12.1593   -8.5414 C   0  0  0  0  0  0  0  0  0  0  0  0
  -51.6474  -10.6726   -9.3655 S   0  0  0  0  0  0  0  0  0  0  0  0
  -49.9577  -10.5054   -9.1122 C   0  0  0  0  0  0  0  0  0  0  0  0
  -46.8146  -13.8194   -9.6697 C   0  0  0  0  0  0  0  0  0  0  0  0
  -46.8217  -14.6689  -10.9353 C   0  0  0  0  0  0  0  0  0  0  0  0
  -47.4703  -13.9594  -13.0244 O   0  0  0  0  0  0  0  0  0  0  0  0
  -47.2963  -16.7499  -15.8930 C   0  0  0  0  0  0  0  0  0  0  0  0
  -46.7574  -17.8973  -16.4618 C   0  0  0  0  0  0  0  0  0  0  0  0
  1  2  1  0  0  0  0
  2  3  2  0  0  0  0
  3  4  1  0  0  0  0
  4  5  2  0  0  0  0
  5  6  1  0  0  0  0
  6  7  1  0  0  0  0
  7  8  1  0  0  0  0
  8  9  2  0  0  0  0
 10  8  1  0  0  0  0
 10 11  1  0  0  0  0
 11 12  1  0  0  0  0
 12 13  1  0  0  0  0
 12 14  1  0  0  0  0
 14 15  1  0  0  0  0
 15 16  1  0  0  0  0
 16 17  1  0  0  0  0
 17 18  1  0  0  0  0
 18 19  1  0  0  0  0
 19 20  1  0  0  0  0
 20 21  1  0  0  0  0
 21 22  2  0  0  0  0
 22 23  1  0  0  0  0
 23 24  1  0  0  0  0
 18 25  1  0  0  0  0
 25 26  1  0  0  0  0
 15 27  1  0  0  0  0
  5 28  1  0  0  0  0
 28 29  2  0  0  0  0
 29  2  1  0  0  0  0
 27 10  1  0  0  0  0
 26 15  1  0  0  0  0
 24 20  2  0  0  0  0
M  END
>  <zinc_id>  (303) 
ZINC000306140268

>  <smiles>  (303) 
Cc1ccc(CNC(=O)[C@H]2CN(C)CC3(CCN(Cc4ccsc4)CC3)O2)cc1

>  <source_line>  (303) 
303

>  <source_data>  (303) 
ZINC000306140268

>  <source_name>  (303) 


>  <source_label>  (303) 
ZINC000306140268

>  <found_by>  (303) 
ZINC

> <Gold.Version>
5.8.1

> <Gold.Id.Protein>
ID|ID_protein|mol2

> <Gold.Goldscore.Fitness>
56.4496

> <Gold.Goldscore.Internal.Vdw>
-2.1826

> <Gold.Goldscore.Internal.Torsion>
-4.8490

> <Gold.Goldscore.External.Vdw>
40.6096

> <Gold.Goldscore.Internal.HBond>
0.0000

> <Gold.Goldscore.External.HBond>
5.9505

> <Gold.Goldscore.Internal.Correction>
-1.6925

> <Gold.Goldscore.Hbonds>
donor molecule, donor type, donor heavy atom, donor atom, acceptor molecule, acceptor atom, score
      P1  H   426  4822       L1     7  0.40
      P1  H   435  4829       L1     9  0.44
      P1  H   441  4839       L1     9  0.30
      P1  H  1916  6166       L1    27  0.45

> <Gold.Goldscore.Internal.Vdw.Weighted>
-2.1826

> <Gold.Goldscore.Internal.Torsion.Weighted>
-4.8490

> <Gold.Goldscore.External.Vdw.Weighted>
55.8382

> <Gold.Goldscore.Internal.HBond.Weighted>
0.0000

> <Gold.Goldscore.External.HBond.Weighted>
5.9505

> <Gold.Goldscore.Internal.Correction.Weighted>
-1.6925

> <Gold.Protein.RotatedTorsions>
[ 4464  112  111  109 ] final -172.55 input   60.00 | X-H torsion
[ 4839  441  440  439 ] final   93.87 input   60.00 | X-H torsion
[ 4985  758  757  756 ] final   99.74 input   60.00 | X-H torsion
[ 5271 1023 1022 1020 ] final   93.58 input   60.00 | X-H torsion
[ 6036 1776 1775 1774 ] final   68.53 input   60.00 | X-H torsion
[ 6078 1819 1818 1817 ] final  -95.41 input   60.00 | X-H torsion
[ 6166 1916 1915 1913 ] final  -77.28 input   60.00 | X-H torsion
[ 4818   65   64   63 ] final   83.93 input   60.00 | X-H torsion
[ 6268 1997 1996 1994 ] final -126.93 input   60.00 | X-H torsion
[ 8592   72   71   70 ] final   -6.90 input   60.00 | X-H torsion
[ 4356  100   99   97 ] final -176.03 input   60.00 | X-H torsion
[ 8510  202  201  200 ] final  113.96 input   60.00 | X-H torsion
[ 5330 1065 1064 1063 ] final   15.05 input   60.00 | X-H torsion
[ 6640 2347 2346 2344 ] final  152.01 input   60.00 | X-H torsion
[ 4452  380  379  378 ] final  -12.38 input   60.00 | X-H torsion
[ 4500  391  390  389 ] final   87.31 input   60.00 | X-H torsion

> <Gold.Protein.ActiveResidues>
 THR8    THR9    PRO10   ILE11   TYR12   TYR13   VAL14   ASN15   ALA16   HIS19  
 HIS22   SER25   VAL29   MET46   THR47   GLY48   THR49   ASP50   GLU51   HIS52  
 GLY53   GLN54   LYS55   VAL56   ALA57   GLU58   THR71   PHE78   ILE93   THR95  
 THR96   HIS100  GLU101  VAL104  TRP108  TYR126  VAL128  SER129  ASP130  GLU131 
 SER132  LEU210  SER211  ILE212  SER213  ARG214  LYS215  ARG216  SER218  VAL219 
 MET220  ASN221  TRP222  SER223  ILE224  PRO225  VAL226  HIS232  CYS233  ILE234 
 TYR235  VAL236  TRP237  LEU238  ASP239  ALA240  LEU241  PHE242  ASN243  TYR244 
 TYR245  THR246  HIS275  VAL276  VAL277  GLY278  LYS279  ASP280  ILE281  LEU282 
 LYS283  PHE284  HIS285  ALA286  ILE287  TYR288  TRP289  PRO290  PHE292  LEU304 
 TRP309 

> <Gold.Protein.RotatedAtoms>
  -31.9412   -7.4511   -6.4933 H   0  0  0  0  0  0  0  0  0  0  0  0  # atno 4356 bound_to 100 
  -31.2417   -9.7661   -9.1165 H   0  0  0  0  0  0  0  0  0  0  0  0  # atno 4452 bound_to 380 
  -45.9178  -10.2767  -16.1751 H   0  0  0  0  0  0  0  0  0  0  0  0  # atno 4464 bound_to 112 
  -35.3395  -10.8861  -16.5989 H   0  0  0  0  0  0  0  0  0  0  0  0  # atno 4500 bound_to 391 
  -31.6376  -15.2622   -3.5273 H   0  0  0  0  0  0  0  0  0  0  0  0  # atno 4818 bound_to 65  
  -48.2401  -11.2552  -14.5127 H   0  0  0  0  0  0  0  0  0  0  0  0  # atno 4839 bound_to 441 
  -48.1869  -11.5042  -12.8749 H   0  0  0  0  0  0  0  0  0  0  0  0  # atno 4840 bound_to 441 
  -49.5489  -10.8674  -13.5726 H   0  0  0  0  0  0  0  0  0  0  0  0  # atno 4841 bound_to 441 
  -37.6693  -17.9994  -15.6537 H   0  0  0  0  0  0  0  0  0  0  0  0  # atno 4985 bound_to 758 
  -54.4427  -17.6641  -15.0223 H   0  0  0  0  0  0  0  0  0  0  0  0  # atno 5271 bound_to 1023
  -54.0118  -15.3541   -8.5547 H   0  0  0  0  0  0  0  0  0  0  0  0  # atno 5330 bound_to 1065
  -55.0862  -16.5475  -18.2799 H   0  0  0  0  0  0  0  0  0  0  0  0  # atno 6036 bound_to 1776
  -45.0727  -17.7555  -18.2907 H   0  0  0  0  0  0  0  0  0  0  0  0  # atno 6078 bound_to 1819
  -48.9349  -15.0408  -11.7377 H   0  0  0  0  0  0  0  0  0  0  0  0  # atno 6166 bound_to 1916
  -35.3788  -15.9515   -4.0675 H   0  0  0  0  0  0  0  0  0  0  0  0  # atno 6268 bound_to 1997
  -48.8873  -19.7636   -1.6824 H   0  0  0  0  0  0  0  0  0  0  0  0  # atno 6640 bound_to 2347
  -35.5541   -6.3996   -2.7946 H   0  0  0  0  0  0  0  0  0  0  0  0  # atno 8510 bound_to 202 
  -32.6878   -9.7247   -3.8614 H   0  0  0  0  0  0  0  0  0  0  0  0  # atno 8592 bound_to 72  
  -45.7665  -11.7094  -15.4185 LP  0  0  0  0  0  0  0  0  0  0  0  0  # atno 8618 bound_to 112 
  -44.7199  -11.2925  -16.6006 LP  0  0  0  0  0  0  0  0  0  0  0  0  # atno 8619 bound_to 112 
  -37.4257  -17.9555  -17.2621 LP  0  0  0  0  0  0  0  0  0  0  0  0  # atno 8637 bound_to 758 
  -38.7292  -17.2187  -16.6104 LP  0  0  0  0  0  0  0  0  0  0  0  0  # atno 8638 bound_to 758 
  -54.2798  -17.1973  -13.4719 LP  0  0  0  0  0  0  0  0  0  0  0  0  # atno 8642 bound_to 1023
  -54.7472  -16.1204  -14.6070 LP  0  0  0  0  0  0  0  0  0  0  0  0  # atno 8643 bound_to 1023
  -53.4671  -16.3898  -18.2372 LP  0  0  0  0  0  0  0  0  0  0  0  0  # atno 8662 bound_to 1776
  -54.1977  -17.5752  -17.3841 LP  0  0  0  0  0  0  0  0  0  0  0  0  # atno 8663 bound_to 1776
  -46.4995  -17.9176  -19.0562 LP  0  0  0  0  0  0  0  0  0  0  0  0  # atno 8672 bound_to 1819
  -45.3227  -16.9896  -19.7046 LP  0  0  0  0  0  0  0  0  0  0  0  0  # atno 8673 bound_to 1819
  -49.8697  -15.7240  -10.5943 LP  0  0  0  0  0  0  0  0  0  0  0  0  # atno 8684 bound_to 1916
  -50.4574  -15.4872  -12.0993 LP  0  0  0  0  0  0  0  0  0  0  0  0  # atno 8685 bound_to 1916
  -30.4483  -15.8324   -2.5740 LP  0  0  0  0  0  0  0  0  0  0  0  0  # atno 8712 bound_to 65  
  -31.1871  -16.8216   -3.6428 LP  0  0  0  0  0  0  0  0  0  0  0  0  # atno 8713 bound_to 65  
  -35.5612  -15.5319   -5.6291 LP  0  0  0  0  0  0  0  0  0  0  0  0  # atno 8724 bound_to 1997
  -34.2739  -14.9932   -4.7809 LP  0  0  0  0  0  0  0  0  0  0  0  0  # atno 8725 bound_to 1997
  -32.3937   -8.7990   -5.1669 LP  0  0  0  0  0  0  0  0  0  0  0  0  # atno 8747 bound_to 72  
  -31.4351   -8.6862   -3.8497 LP  0  0  0  0  0  0  0  0  0  0  0  0  # atno 8748 bound_to 72  
  -32.9365   -8.3919   -5.6144 LP  0  0  0  0  0  0  0  0  0  0  0  0  # atno 8749 bound_to 100 
  -33.0264   -6.7660   -5.4927 LP  0  0  0  0  0  0  0  0  0  0  0  0  # atno 8750 bound_to 100 
  -34.9317   -6.2684   -1.2968 LP  0  0  0  0  0  0  0  0  0  0  0  0  # atno 8754 bound_to 202 
  -35.3890   -7.7278   -1.8692 LP  0  0  0  0  0  0  0  0  0  0  0  0  # atno 8755 bound_to 202 
  -54.0332  -15.9607   -7.0449 LP  0  0  0  0  0  0  0  0  0  0  0  0  # atno 8775 bound_to 1065
  -54.7127  -14.5083   -7.3541 LP  0  0  0  0  0  0  0  0  0  0  0  0  # atno 8776 bound_to 1065
  -49.3673  -21.2852   -1.3623 LP  0  0  0  0  0  0  0  0  0  0  0  0  # atno 8779 bound_to 2347
  -49.4413  -20.7064   -2.8875 LP  0  0  0  0  0  0  0  0  0  0  0  0  # atno 8780 bound_to 2347
  -30.4217   -8.4024   -9.4568 LP  0  0  0  0  0  0  0  0  0  0  0  0  # atno 8787 bound_to 380 
  -30.6344   -8.8650   -7.9053 LP  0  0  0  0  0  0  0  0  0  0  0  0  # atno 8788 bound_to 380 

$$$$
