unknown|11k_best|sdf|572|dock8
  -GOLD-   23121 6153D 1   1.00000     0.00000

 30 32  0  0  0  0  0  0  0  0  1 V2000
  -39.8567  -16.4934  -13.6668 C   0  0  0  0  0  0  0  0  0  0  0  0
  -40.6133  -16.4707  -14.9899 C   0  0  0  0  0  0  0  0  0  0  0  0
  -42.0045  -16.2372  -14.6518 N   0  0  0  0  0  0  0  0  0  0  0  0
  -43.0787  -16.9870  -15.2088 C   0  0  0  0  0  0  0  0  0  0  0  0
  -42.7735  -18.0042  -15.8750 O   0  0  0  0  0  0  0  0  0  0  0  0
  -44.4093  -16.7836  -14.6251 C   0  0  0  0  0  0  0  0  0  0  0  0
  -44.7035  -15.7052  -13.8066 C   0  0  0  0  0  0  0  0  0  0  0  0
  -46.0008  -15.2663  -13.5943 C   0  0  0  0  0  0  0  0  0  0  0  0
  -46.2135  -13.5705  -13.1759 S   0  0  0  0  0  0  0  0  0  0  0  0
  -47.4064  -13.5089  -12.2584 O   0  0  0  0  0  0  0  0  0  0  0  0
  -46.4847  -12.8511  -14.4780 O   0  0  0  0  0  0  0  0  0  0  0  0
  -44.8312  -12.9257  -12.3953 N   0  0  0  0  0  0  0  0  0  0  0  0
  -44.8047  -11.5877  -11.8801 C   0  0  0  0  0  0  0  0  0  0  0  0
  -45.8508  -10.7288  -11.7770 N   0  0  0  0  0  0  0  0  0  0  0  0
  -45.4546   -9.4918  -11.6224 N   0  0  0  0  0  0  0  0  0  0  0  0
  -44.6019   -9.3616  -10.5751 C   0  0  0  0  0  0  0  0  0  0  0  0
  -44.3381   -8.1766   -9.7563 C   0  0  0  0  0  0  0  0  0  0  0  0
  -43.1327   -8.0680   -9.0730 C   0  0  0  0  0  0  0  0  0  0  0  0
  -42.4805   -6.8456   -8.9652 C   0  0  0  0  0  0  0  0  0  0  0  0
  -42.9692   -5.7152   -9.6107 C   0  0  0  0  0  0  0  0  0  0  0  0
  -42.1031   -4.8408  -10.2762 O   0  0  0  0  0  0  0  0  0  0  0  0
  -40.7020   -5.1050  -10.2655 C   0  0  0  0  0  0  0  0  0  0  0  0
  -44.3189   -5.7728   -9.9394 C   0  0  0  0  0  0  0  0  0  0  0  0
  -45.0121   -6.9773   -9.9535 C   0  0  0  0  0  0  0  0  0  0  0  0
  -43.7519  -10.8458  -10.7398 S   0  0  0  0  0  0  0  0  0  0  0  0
  -47.0237  -15.9870  -14.1621 C   0  0  0  0  0  0  0  0  0  0  0  0
  -46.7402  -17.1197  -14.8736 C   0  0  0  0  0  0  0  0  0  0  0  0
  -45.4475  -17.5637  -15.1188 C   0  0  0  0  0  0  0  0  0  0  0  0
  -45.2678  -18.2646  -16.3140 O   0  0  0  0  0  0  0  0  0  0  0  0
  -46.3195  -18.9189  -16.9891 C   0  0  0  0  0  0  0  0  0  0  0  0
  1  2  1  0  0  0  0
  2  3  1  0  0  0  0
  3  4  1  0  0  0  0
  4  5  2  0  0  0  0
  4  6  1  0  0  0  0
  6  7  2  0  0  0  0
  7  8  1  0  0  0  0
  8  9  1  0  0  0  0
  9 10  2  0  0  0  0
  9 11  2  0  0  0  0
  9 12  1  0  0  0  0
 12 13  1  0  0  0  0
 13 14  2  0  0  0  0
 14 15  1  0  0  0  0
 15 16  2  0  0  0  0
 16 17  1  0  0  0  0
 17 18  2  0  0  0  0
 18 19  1  0  0  0  0
 19 20  2  0  0  0  0
 20 21  1  0  0  0  0
 21 22  1  0  0  0  0
 20 23  1  0  0  0  0
 23 24  2  0  0  0  0
 16 25  1  0  0  0  0
  8 26  2  0  0  0  0
 26 27  1  0  0  0  0
 27 28  2  0  0  0  0
 28 29  1  0  0  0  0
 29 30  1  0  0  0  0
 28  6  1  0  0  0  0
 25 13  1  0  0  0  0
 24 17  1  0  0  0  0
M  END
>  <zinc_id>  (572) 
ZINC000224258001

>  <smiles>  (572) 
CCNC(=O)c1cc(S(=O)(=O)Nc2nnc(-c3ccc(OC)cc3)s2)ccc1OC

>  <source_line>  (572) 
572

>  <source_data>  (572) 
ZINC000224258001

>  <source_name>  (572) 


>  <source_label>  (572) 
ZINC000224258001

>  <found_by>  (572) 
ZINC

> <Gold.Version>
5.8.1

> <Gold.Id.Protein>
ID|ID_protein|mol2

> <Gold.Goldscore.Fitness>
82.0817

> <Gold.Goldscore.Internal.Vdw>
2.1417

> <Gold.Goldscore.Internal.Torsion>
-7.7891

> <Gold.Goldscore.External.Vdw>
53.4017

> <Gold.Goldscore.Internal.HBond>
0.0000

> <Gold.Goldscore.External.HBond>
10.0613

> <Gold.Goldscore.Internal.Correction>
-4.2404

> <Gold.Goldscore.Hbonds>
donor molecule, donor type, donor heavy atom, donor atom, acceptor molecule, acceptor atom, score
      P1  H   112  4464       L1    11  1.00
      P1  H   441  4839       L1    11  1.00
      P1  H  1819  6078       L1    29  0.03
      P1  H  1916  6166       L1    10  1.00

> <Gold.Goldscore.Internal.Vdw.Weighted>
2.1417

> <Gold.Goldscore.Internal.Torsion.Weighted>
-7.7891

> <Gold.Goldscore.External.Vdw.Weighted>
73.4273

> <Gold.Goldscore.Internal.HBond.Weighted>
0.0000

> <Gold.Goldscore.External.HBond.Weighted>
10.0613

> <Gold.Goldscore.Internal.Correction.Weighted>
-4.2404

> <Gold.Protein.RotatedTorsions>
[ 4464  112  111  109 ] final   74.57 input   60.00 | X-H torsion
[ 4839  441  440  439 ] final  135.29 input   60.00 | X-H torsion
[ 4985  758  757  756 ] final  -71.99 input   60.00 | X-H torsion
[ 5271 1023 1022 1020 ] final  -13.22 input   60.00 | X-H torsion
[ 6036 1776 1775 1774 ] final  140.81 input   60.00 | X-H torsion
[ 6078 1819 1818 1817 ] final  -93.04 input   60.00 | X-H torsion
[ 6166 1916 1915 1913 ] final  -76.31 input   60.00 | X-H torsion
[ 4818   65   64   63 ] final  125.57 input   60.00 | X-H torsion
[ 6268 1997 1996 1994 ] final  -50.00 input   60.00 | X-H torsion
[ 8592   72   71   70 ] final  166.29 input   60.00 | X-H torsion
[ 4356  100   99   97 ] final   47.65 input   60.00 | X-H torsion
[ 8510  202  201  200 ] final  110.11 input   60.00 | X-H torsion
[ 5330 1065 1064 1063 ] final   89.79 input   60.00 | X-H torsion
[ 6640 2347 2346 2344 ] final  169.41 input   60.00 | X-H torsion
[ 4452  380  379  378 ] final  152.48 input   60.00 | X-H torsion
[ 4500  391  390  389 ] final -152.21 input   60.00 | X-H torsion

> <Gold.Protein.ActiveResidues>
 THR8    THR9    PRO10   ILE11   TYR12   TYR13   VAL14   ASN15   ALA16   HIS19  
 HIS22   SER25   VAL29   MET46   THR47   GLY48   THR49   ASP50   GLU51   HIS52  
 GLY53   GLN54   LYS55   VAL56   ALA57   GLU58   THR71   PHE78   ILE93   THR95  
 THR96   HIS100  GLU101  VAL104  TRP108  TYR126  VAL128  SER129  ASP130  GLU131 
 SER132  LEU210  SER211  ILE212  SER213  ARG214  LYS215  ARG216  SER218  VAL219 
 MET220  ASN221  TRP222  SER223  ILE224  PRO225  VAL226  HIS232  CYS233  ILE234 
 TYR235  VAL236  TRP237  LEU238  ASP239  ALA240  LEU241  PHE242  ASN243  TYR244 
 TYR245  THR246  HIS275  VAL276  VAL277  GLY278  LYS279  ASP280  ILE281  LEU282 
 LYS283  PHE284  HIS285  ALA286  ILE287  TYR288  TRP289  PRO290  PHE292  LEU304 
 TRP309 

> <Gold.Protein.RotatedAtoms>
  -33.0997   -8.2414   -5.4664 H   0  0  0  0  0  0  0  0  0  0  0  0  # atno 4356 bound_to 100 
  -30.3381   -8.3568   -8.3151 H   0  0  0  0  0  0  0  0  0  0  0  0  # atno 4452 bound_to 380 
  -45.8462  -11.6268  -15.3963 H   0  0  0  0  0  0  0  0  0  0  0  0  # atno 4464 bound_to 112 
  -34.2313   -9.7043  -16.7314 H   0  0  0  0  0  0  0  0  0  0  0  0  # atno 4500 bound_to 391 
  -31.7809  -15.8178   -3.8643 H   0  0  0  0  0  0  0  0  0  0  0  0  # atno 4818 bound_to 65  
  -47.8246  -11.4869  -14.0314 H   0  0  0  0  0  0  0  0  0  0  0  0  # atno 4839 bound_to 441 
  -48.8048  -11.2822  -12.7105 H   0  0  0  0  0  0  0  0  0  0  0  0  # atno 4840 bound_to 441 
  -49.3465  -10.8577  -14.2184 H   0  0  0  0  0  0  0  0  0  0  0  0  # atno 4841 bound_to 441 
  -38.1003  -17.5120  -17.4043 H   0  0  0  0  0  0  0  0  0  0  0  0  # atno 4985 bound_to 758 
  -54.2488  -17.3937  -13.5562 H   0  0  0  0  0  0  0  0  0  0  0  0  # atno 5271 bound_to 1023
  -54.5656  -14.4928   -8.0620 H   0  0  0  0  0  0  0  0  0  0  0  0  # atno 5330 bound_to 1065
  -54.9049  -17.3969  -17.5977 H   0  0  0  0  0  0  0  0  0  0  0  0  # atno 6036 bound_to 1776
  -45.0453  -17.7333  -18.3067 H   0  0  0  0  0  0  0  0  0  0  0  0  # atno 6078 bound_to 1819
  -48.9408  -15.0386  -11.7523 H   0  0  0  0  0  0  0  0  0  0  0  0  # atno 6166 bound_to 1916
  -34.4219  -15.2971   -4.1796 H   0  0  0  0  0  0  0  0  0  0  0  0  # atno 6268 bound_to 1997
  -48.9157  -19.7019   -1.9574 H   0  0  0  0  0  0  0  0  0  0  0  0  # atno 6640 bound_to 2347
  -35.5359   -6.3443   -2.7708 H   0  0  0  0  0  0  0  0  0  0  0  0  # atno 8510 bound_to 202 
  -31.5956   -8.4175   -4.6305 H   0  0  0  0  0  0  0  0  0  0  0  0  # atno 8592 bound_to 72  
  -44.7145  -11.3938  -16.5422 LP  0  0  0  0  0  0  0  0  0  0  0  0  # atno 8618 bound_to 112 
  -45.8440  -10.2484  -16.2612 LP  0  0  0  0  0  0  0  0  0  0  0  0  # atno 8619 bound_to 112 
  -38.5393  -17.4333  -15.8393 LP  0  0  0  0  0  0  0  0  0  0  0  0  # atno 8637 bound_to 758 
  -37.1815  -18.2317  -16.2702 LP  0  0  0  0  0  0  0  0  0  0  0  0  # atno 8638 bound_to 758 
  -54.7193  -16.0815  -14.3958 LP  0  0  0  0  0  0  0  0  0  0  0  0  # atno 8642 bound_to 1023
  -54.5031  -17.5086  -15.1594 LP  0  0  0  0  0  0  0  0  0  0  0  0  # atno 8643 bound_to 1023
  -54.5055  -16.1334  -18.5422 LP  0  0  0  0  0  0  0  0  0  0  0  0  # atno 8662 bound_to 1776
  -53.3419  -16.9763  -17.7662 LP  0  0  0  0  0  0  0  0  0  0  0  0  # atno 8663 bound_to 1776
  -46.4927  -17.9356  -19.0223 LP  0  0  0  0  0  0  0  0  0  0  0  0  # atno 8672 bound_to 1819
  -45.3571  -16.9939  -19.7224 LP  0  0  0  0  0  0  0  0  0  0  0  0  # atno 8673 bound_to 1819
  -49.8548  -15.7196  -10.5909 LP  0  0  0  0  0  0  0  0  0  0  0  0  # atno 8684 bound_to 1916
  -50.4665  -15.4939  -12.0881 LP  0  0  0  0  0  0  0  0  0  0  0  0  # atno 8685 bound_to 1916
  -30.7860  -15.2674   -2.7001 LP  0  0  0  0  0  0  0  0  0  0  0  0  # atno 8712 bound_to 65  
  -30.7050  -16.8271   -3.1773 LP  0  0  0  0  0  0  0  0  0  0  0  0  # atno 8713 bound_to 65  
  -35.8062  -16.0412   -4.6014 LP  0  0  0  0  0  0  0  0  0  0  0  0  # atno 8724 bound_to 1997
  -34.9925  -15.1429   -5.6957 LP  0  0  0  0  0  0  0  0  0  0  0  0  # atno 8725 bound_to 1997
  -32.0418   -9.4123   -3.4225 LP  0  0  0  0  0  0  0  0  0  0  0  0  # atno 8747 bound_to 72  
  -32.8870   -9.3893   -4.8196 LP  0  0  0  0  0  0  0  0  0  0  0  0  # atno 8748 bound_to 72  
  -32.8480   -6.6443   -5.6509 LP  0  0  0  0  0  0  0  0  0  0  0  0  # atno 8749 bound_to 100 
  -31.9483   -7.7178   -6.4903 LP  0  0  0  0  0  0  0  0  0  0  0  0  # atno 8750 bound_to 100 
  -34.9260   -6.3212   -1.2623 LP  0  0  0  0  0  0  0  0  0  0  0  0  # atno 8754 bound_to 202 
  -35.4131   -7.7307   -1.9277 LP  0  0  0  0  0  0  0  0  0  0  0  0  # atno 8755 bound_to 202 
  -53.8015  -15.9258   -8.1650 LP  0  0  0  0  0  0  0  0  0  0  0  0  # atno 8775 bound_to 1065
  -54.3868  -15.4107   -6.7302 LP  0  0  0  0  0  0  0  0  0  0  0  0  # atno 8776 bound_to 1065
  -49.2654  -21.0891   -1.1819 LP  0  0  0  0  0  0  0  0  0  0  0  0  # atno 8779 bound_to 2347
  -49.5146  -20.9646   -2.7909 LP  0  0  0  0  0  0  0  0  0  0  0  0  # atno 8780 bound_to 2347
  -31.1941   -9.7380   -8.4017 LP  0  0  0  0  0  0  0  0  0  0  0  0  # atno 8787 bound_to 380 
  -30.7720   -8.9487   -9.7675 LP  0  0  0  0  0  0  0  0  0  0  0  0  # atno 8788 bound_to 380 

$$$$
