unknown|11k_best|sdf|8329|dock3
  -GOLD-   3 721 1463D 1   1.00000     0.00000

 30 34  0  0  0  0  0  0  0  0  1 V2000
  -51.3605  -15.6723  -17.4674 O   0  0  0  0  0  0  0  0  0  0  0  0
  -50.1889  -15.7953  -17.0000 C   0  0  0  0  0  0  0  0  0  0  0  0
  -49.5775  -17.0388  -16.9322 C   0  0  0  0  0  0  0  0  0  0  0  0
  -48.3481  -17.1710  -16.3392 C   0  0  0  0  0  0  0  0  0  0  0  0
  -47.7197  -16.0364  -15.8537 C   0  0  0  0  0  0  0  0  0  0  0  0
  -46.5525  -16.1030  -15.1092 C   0  0  0  0  0  0  0  0  0  0  0  0
  -46.0246  -14.9340  -14.6232 C   0  0  0  0  0  0  0  0  0  0  0  0
  -46.9334  -13.9187  -14.3495 C   0  0  0  0  0  0  0  0  0  0  0  0
  -46.4321  -12.8198  -13.6463 O   0  0  0  0  0  0  0  0  0  0  0  0
  -45.4570  -12.9746  -12.2741 S   0  0  0  0  0  0  0  0  0  0  0  0
  -44.2910  -12.0461  -12.4368 O   0  0  0  0  0  0  0  0  0  0  0  0
  -44.9132  -14.3787  -12.2083 O   0  0  0  0  0  0  0  0  0  0  0  0
  -46.3235  -12.5544  -10.8015 C   0  0  0  0  0  0  0  0  0  0  0  0
  -45.8808  -12.9817   -9.5544 C   0  0  0  0  0  0  0  0  0  0  0  0
  -46.7694  -13.3623   -8.5552 C   0  0  0  0  0  0  0  0  0  0  0  0
  -46.3709  -14.1486   -7.4804 C   0  0  0  0  0  0  0  0  0  0  0  0
  -47.1527  -15.1960   -7.0091 C   0  0  0  0  0  0  0  0  0  0  0  0
  -48.4588  -15.3289   -7.4613 C   0  0  0  0  0  0  0  0  0  0  0  0
  -48.9530  -14.3888   -8.3406 C   0  0  0  0  0  0  0  0  0  0  0  0
  -48.1377  -13.3629   -8.8050 C   0  0  0  0  0  0  0  0  0  0  0  0
  -48.5457  -12.5207   -9.8335 C   0  0  0  0  0  0  0  0  0  0  0  0
  -47.6557  -12.1591  -10.8384 C   0  0  0  0  0  0  0  0  0  0  0  0
  -49.9985  -12.4153  -10.0230 C   0  0  0  0  0  0  0  0  0  0  0  0
  -50.4089  -11.4713  -10.7473 O   0  0  0  0  0  0  0  0  0  0  0  0
  -50.8660  -13.4455   -9.5343 N   0  0  0  0  0  0  0  0  0  0  0  0
  -50.3029  -14.5916   -8.8837 C   0  0  0  0  0  0  0  0  0  0  0  0
  -50.7238  -15.7653   -9.1175 O   0  0  0  0  0  0  0  0  0  0  0  0
  -47.9987  -13.7204  -15.2189 C   0  0  0  0  0  0  0  0  0  0  0  0
  -48.3576  -14.8144  -15.9916 C   0  0  0  0  0  0  0  0  0  0  0  0
  -49.4067  -14.7584  -16.7748 O   0  0  0  0  0  0  0  0  0  0  0  0
  1  2  2  0  0  0  0
  2  3  1  0  0  0  0
  3  4  2  0  0  0  0
  4  5  1  0  0  0  0
  5  6  2  0  0  0  0
  6  7  1  0  0  0  0
  7  8  2  0  0  0  0
  8  9  1  0  0  0  0
  9 10  1  0  0  0  0
 10 11  2  0  0  0  0
 10 12  2  0  0  0  0
 10 13  1  0  0  0  0
 13 14  2  0  0  0  0
 14 15  1  0  0  0  0
 15 16  2  0  0  0  0
 16 17  1  0  0  0  0
 17 18  2  0  0  0  0
 18 19  1  0  0  0  0
 19 20  2  0  0  0  0
 20 21  1  0  0  0  0
 21 22  2  0  0  0  0
 21 23  1  0  0  0  0
 23 24  2  0  0  0  0
 23 25  1  0  0  0  0
 25 26  1  0  0  0  0
 26 27  2  0  0  0  0
  8 28  1  0  0  0  0
 28 29  2  0  0  0  0
 29 30  1  0  0  0  0
 30  2  1  0  0  0  0
 29  5  1  0  0  0  0
 22 13  1  0  0  0  0
 20 15  1  0  0  0  0
 26 19  1  0  0  0  0
M  END
>  <zinc_id>  (329) 
ZINC000001890078

>  <smiles>  (329) 
O=C1NC(=O)c2cc(S(=O)(=O)Oc3ccc4ccc(=O)oc4c3)cc3cccc1c23

>  <source_line>  (329) 
329

>  <source_data>  (329) 
ZINC000001890078

>  <source_name>  (329) 


>  <source_label>  (329) 
ZINC000001890078

>  <found_by>  (329) 
ZINC

> <Gold.Version>
5.8.1

> <Gold.Id.Protein>
ID|ID_protein|mol2

> <Gold.Goldscore.Fitness>
66.8821

> <Gold.Goldscore.Internal.Vdw>
1.3039

> <Gold.Goldscore.Internal.Torsion>
-6.9927

> <Gold.Goldscore.External.Vdw>
43.0503

> <Gold.Goldscore.Internal.HBond>
0.0000

> <Gold.Goldscore.External.HBond>
14.2285

> <Gold.Goldscore.Internal.Correction>
0.8518

> <Gold.Goldscore.Hbonds>
donor molecule, donor type, donor heavy atom, donor atom, acceptor molecule, acceptor atom, score
      P1  H   112  4464       L1     9  0.41
      P1  H   426  4822       L1    30  1.00
      P1  H   441  4840       L1     9  1.00
      P1  H   441  4841       L1    24  0.57
      P1  H  1776  6036       L1     1  1.00

> <Gold.Goldscore.Internal.Vdw.Weighted>
1.3039

> <Gold.Goldscore.Internal.Torsion.Weighted>
-6.9927

> <Gold.Goldscore.External.Vdw.Weighted>
59.1942

> <Gold.Goldscore.Internal.HBond.Weighted>
0.0000

> <Gold.Goldscore.External.HBond.Weighted>
14.2285

> <Gold.Goldscore.Internal.Correction.Weighted>
0.8518

> <Gold.Protein.RotatedTorsions>
[ 4464  112  111  109 ] final   72.36 input   60.00 | X-H torsion
[ 4839  441  440  439 ] final   38.06 input   60.00 | X-H torsion
[ 4985  758  757  756 ] final   38.91 input   60.00 | X-H torsion
[ 5271 1023 1022 1020 ] final  153.54 input   60.00 | X-H torsion
[ 6036 1776 1775 1774 ] final  -76.51 input   60.00 | X-H torsion
[ 6078 1819 1818 1817 ] final  174.03 input   60.00 | X-H torsion
[ 6166 1916 1915 1913 ] final  -95.67 input   60.00 | X-H torsion
[ 4818   65   64   63 ] final -114.39 input   60.00 | X-H torsion
[ 6268 1997 1996 1994 ] final   -5.92 input   60.00 | X-H torsion
[ 8592   72   71   70 ] final  106.46 input   60.00 | X-H torsion
[ 4356  100   99   97 ] final  -27.23 input   60.00 | X-H torsion
[ 8510  202  201  200 ] final  -99.06 input   60.00 | X-H torsion
[ 5330 1065 1064 1063 ] final    8.79 input   60.00 | X-H torsion
[ 6640 2347 2346 2344 ] final   42.86 input   60.00 | X-H torsion
[ 4452  380  379  378 ] final -144.48 input   60.00 | X-H torsion
[ 4500  391  390  389 ] final  -20.36 input   60.00 | X-H torsion

> <Gold.Protein.ActiveResidues>
 THR8    THR9    PRO10   ILE11   TYR12   TYR13   VAL14   ASN15   ALA16   HIS19  
 HIS22   SER25   VAL29   MET46   THR47   GLY48   THR49   ASP50   GLU51   HIS52  
 GLY53   GLN54   LYS55   VAL56   ALA57   GLU58   THR71   PHE78   ILE93   THR95  
 THR96   HIS100  GLU101  VAL104  TRP108  TYR126  VAL128  SER129  ASP130  GLU131 
 SER132  LEU210  SER211  ILE212  SER213  ARG214  LYS215  ARG216  SER218  VAL219 
 MET220  ASN221  TRP222  SER223  ILE224  PRO225  VAL226  HIS232  CYS233  ILE234 
 TYR235  VAL236  TRP237  LEU238  ASP239  ALA240  LEU241  PHE242  ASN243  TYR244 
 TYR245  THR246  HIS275  VAL276  VAL277  GLY278  LYS279  ASP280  ILE281  LEU282 
 LYS283  PHE284  HIS285  ALA286  ILE287  TYR288  TRP289  PRO290  PHE292  LEU304 
 TRP309 

> <Gold.Protein.RotatedAtoms>
  -33.2536   -7.1259   -5.2997 H   0  0  0  0  0  0  0  0  0  0  0  0  # atno 4356 bound_to 100 
  -30.3561   -8.3126   -9.2928 H   0  0  0  0  0  0  0  0  0  0  0  0  # atno 4452 bound_to 380 
  -45.8209  -11.6517  -15.4030 H   0  0  0  0  0  0  0  0  0  0  0  0  # atno 4464 bound_to 112 
  -34.0541  -11.1596  -15.8521 H   0  0  0  0  0  0  0  0  0  0  0  0  # atno 4500 bound_to 391 
  -30.7058  -16.8203   -3.1789 H   0  0  0  0  0  0  0  0  0  0  0  0  # atno 4818 bound_to 65  
  -49.0739  -10.9308  -14.4695 H   0  0  0  0  0  0  0  0  0  0  0  0  # atno 4839 bound_to 441 
  -47.7685  -11.5601  -13.6649 H   0  0  0  0  0  0  0  0  0  0  0  0  # atno 4840 bound_to 441 
  -49.1336  -11.1359  -12.8259 H   0  0  0  0  0  0  0  0  0  0  0  0  # atno 4841 bound_to 441 
  -37.1555  -18.2270  -16.4170 H   0  0  0  0  0  0  0  0  0  0  0  0  # atno 4985 bound_to 758 
  -54.6990  -16.7961  -15.2591 H   0  0  0  0  0  0  0  0  0  0  0  0  # atno 5271 bound_to 1023
  -53.9708  -15.4445   -8.5300 H   0  0  0  0  0  0  0  0  0  0  0  0  # atno 5330 bound_to 1065
  -53.3286  -16.6863  -17.9945 H   0  0  0  0  0  0  0  0  0  0  0  0  # atno 6036 bound_to 1776
  -46.3099  -18.0860  -18.6516 H   0  0  0  0  0  0  0  0  0  0  0  0  # atno 6078 bound_to 1819
  -48.8703  -15.1029  -11.4522 H   0  0  0  0  0  0  0  0  0  0  0  0  # atno 6166 bound_to 1916
  -34.2802  -14.9944   -4.7978 H   0  0  0  0  0  0  0  0  0  0  0  0  # atno 6268 bound_to 1997
  -49.3020  -21.1661   -1.2476 H   0  0  0  0  0  0  0  0  0  0  0  0  # atno 6640 bound_to 2347
  -35.2128   -7.5878   -1.4929 H   0  0  0  0  0  0  0  0  0  0  0  0  # atno 8510 bound_to 202 
  -31.4636   -8.7547   -3.7699 H   0  0  0  0  0  0  0  0  0  0  0  0  # atno 8592 bound_to 72  
  -44.7149  -11.3627  -16.5612 LP  0  0  0  0  0  0  0  0  0  0  0  0  # atno 8618 bound_to 112 
  -45.8690  -10.2543  -16.2355 LP  0  0  0  0  0  0  0  0  0  0  0  0  # atno 8619 bound_to 112 
  -38.2245  -17.4423  -17.3602 LP  0  0  0  0  0  0  0  0  0  0  0  0  # atno 8637 bound_to 758 
  -38.4478  -17.5026  -15.7436 LP  0  0  0  0  0  0  0  0  0  0  0  0  # atno 8638 bound_to 758 
  -54.2308  -17.8700  -14.1296 LP  0  0  0  0  0  0  0  0  0  0  0  0  # atno 8642 bound_to 1023
  -54.5382  -16.3219  -13.7107 LP  0  0  0  0  0  0  0  0  0  0  0  0  # atno 8643 bound_to 1023
  -54.5999  -17.5435  -17.4494 LP  0  0  0  0  0  0  0  0  0  0  0  0  # atno 8662 bound_to 1776
  -54.8348  -16.2818  -18.4593 LP  0  0  0  0  0  0  0  0  0  0  0  0  # atno 8663 bound_to 1776
  -45.7682  -17.1086  -19.8345 LP  0  0  0  0  0  0  0  0  0  0  0  0  # atno 8672 bound_to 1819
  -44.8081  -17.4657  -18.5628 LP  0  0  0  0  0  0  0  0  0  0  0  0  # atno 8673 bound_to 1819
  -50.1419  -15.7905  -10.7050 LP  0  0  0  0  0  0  0  0  0  0  0  0  # atno 8684 bound_to 1916
  -50.2502  -15.3582  -12.2761 LP  0  0  0  0  0  0  0  0  0  0  0  0  # atno 8685 bound_to 1916
  -31.7873  -15.8179   -3.8672 LP  0  0  0  0  0  0  0  0  0  0  0  0  # atno 8712 bound_to 65  
  -30.7865  -15.2670   -2.7004 LP  0  0  0  0  0  0  0  0  0  0  0  0  # atno 8713 bound_to 65  
  -35.3690  -15.9473   -4.0530 LP  0  0  0  0  0  0  0  0  0  0  0  0  # atno 8724 bound_to 1997
  -35.5724  -15.5417   -5.6217 LP  0  0  0  0  0  0  0  0  0  0  0  0  # atno 8725 bound_to 1997
  -32.7534   -9.7307   -3.9483 LP  0  0  0  0  0  0  0  0  0  0  0  0  # atno 8747 bound_to 72  
  -32.3083   -8.7313   -5.1606 LP  0  0  0  0  0  0  0  0  0  0  0  0  # atno 8748 bound_to 72  
  -32.0461   -7.0089   -6.3844 LP  0  0  0  0  0  0  0  0  0  0  0  0  # atno 8749 bound_to 100 
  -32.5953   -8.4765   -5.9248 LP  0  0  0  0  0  0  0  0  0  0  0  0  # atno 8750 bound_to 100 
  -35.6491   -6.8225   -2.8611 LP  0  0  0  0  0  0  0  0  0  0  0  0  # atno 8754 bound_to 202 
  -35.0154   -5.9772   -1.6159 LP  0  0  0  0  0  0  0  0  0  0  0  0  # atno 8755 bound_to 202 
  -54.0789  -15.9033   -6.9725 LP  0  0  0  0  0  0  0  0  0  0  0  0  # atno 8775 bound_to 1065
  -54.7084  -14.4747   -7.4514 LP  0  0  0  0  0  0  0  0  0  0  0  0  # atno 8776 bound_to 1065
  -49.4897  -20.8703   -2.8367 LP  0  0  0  0  0  0  0  0  0  0  0  0  # atno 8779 bound_to 2347
  -48.9012  -19.7089   -1.8510 LP  0  0  0  0  0  0  0  0  0  0  0  0  # atno 8780 bound_to 2347
  -30.7373   -9.0339   -7.8848 LP  0  0  0  0  0  0  0  0  0  0  0  0  # atno 8787 bound_to 380 
  -31.2107   -9.6974   -9.2998 LP  0  0  0  0  0  0  0  0  0  0  0  0  # atno 8788 bound_to 380 

$$$$
