unknown|11k_best|sdf|8288|dock4
  -GOLD-   3 721 0543D 1   1.00000     0.00000

 33 36  0  0  0  0  0  0  0  0  1 V2000
  -48.1837  -19.5261  -17.7489 C   0  0  0  0  0  0  0  0  0  0  0  0
  -47.0481  -18.9339  -17.1228 O   0  0  0  0  0  0  0  0  0  0  0  0
  -47.2925  -17.8023  -16.3399 C   0  0  0  0  0  0  0  0  0  0  0  0
  -48.4277  -17.0242  -16.5219 C   0  0  0  0  0  0  0  0  0  0  0  0
  -48.4127  -15.6807  -16.1713 C   0  0  0  0  0  0  0  0  0  0  0  0
  -49.5619  -14.9242  -16.4059 O   0  0  0  0  0  0  0  0  0  0  0  0
  -50.7472  -15.5257  -16.8713 C   0  0  0  0  0  0  0  0  0  0  0  0
  -47.2827  -15.0812  -15.6309 C   0  0  0  0  0  0  0  0  0  0  0  0
  -47.4934  -13.8943  -14.7990 C   0  0  0  0  0  0  0  0  0  0  0  0
  -46.8244  -13.7528  -13.6969 N   0  0  0  0  0  0  0  0  0  0  0  0
  -46.2769  -12.4909  -13.4425 N   0  0  0  0  0  0  0  0  0  0  0  0
  -45.5487  -12.3529  -12.2191 C   0  0  0  0  0  0  0  0  0  0  0  0
  -44.8251  -13.3988  -11.7675 N   0  0  0  0  0  0  0  0  0  0  0  0
  -43.9237  -13.2291  -10.8014 N   0  0  0  0  0  0  0  0  0  0  0  0
  -43.5741  -11.9911  -10.3998 C   0  0  0  0  0  0  0  0  0  0  0  0
  -42.4053  -11.7194   -9.5775 C   0  0  0  0  0  0  0  0  0  0  0  0
  -41.9865  -12.6809   -8.6667 C   0  0  0  0  0  0  0  0  0  0  0  0
  -40.6931  -12.5573   -8.1788 C   0  0  0  0  0  0  0  0  0  0  0  0
  -39.8779  -11.5185   -8.6107 C   0  0  0  0  0  0  0  0  0  0  0  0
  -40.5325  -10.3569   -9.0001 C   0  0  0  0  0  0  0  0  0  0  0  0
  -41.8398  -10.4597   -9.4590 C   0  0  0  0  0  0  0  0  0  0  0  0
  -44.2581  -10.8902  -10.8904 C   0  0  0  0  0  0  0  0  0  0  0  0
  -44.4610   -9.7239  -10.0213 C   0  0  0  0  0  0  0  0  0  0  0  0
  -44.4319   -8.4259  -10.5164 C   0  0  0  0  0  0  0  0  0  0  0  0
  -43.8298   -7.4173   -9.7746 C   0  0  0  0  0  0  0  0  0  0  0  0
  -43.2624   -7.6786   -8.5325 C   0  0  0  0  0  0  0  0  0  0  0  0
  -43.7797   -8.7977   -7.8903 C   0  0  0  0  0  0  0  0  0  0  0  0
  -44.3611   -9.8143   -8.6385 C   0  0  0  0  0  0  0  0  0  0  0  0
  -45.0646  -11.1186  -11.9561 N   0  0  0  0  0  0  0  0  0  0  0  0
  -46.1315  -15.8507  -15.5132 C   0  0  0  0  0  0  0  0  0  0  0  0
  -45.1025  -15.3946  -14.6846 O   0  0  0  0  0  0  0  0  0  0  0  0
  -43.9528  -16.2057  -14.5222 C   0  0  0  0  0  0  0  0  0  0  0  0
  -46.1859  -17.2174  -15.7576 C   0  0  0  0  0  0  0  0  0  0  0  0
  1  2  1  0  0  0  0
  2  3  1  0  0  0  0
  3  4  2  0  0  0  0
  4  5  1  0  0  0  0
  5  6  1  0  0  0  0
  6  7  1  0  0  0  0
  5  8  2  0  0  0  0
  8  9  1  0  0  0  0
  9 10  2  0  0  0  0
 10 11  1  0  0  0  0
 11 12  1  0  0  0  0
 12 13  2  0  0  0  0
 13 14  1  0  0  0  0
 14 15  2  0  0  0  0
 15 16  1  0  0  0  0
 16 17  2  0  0  0  0
 17 18  1  0  0  0  0
 18 19  2  0  0  0  0
 19 20  1  0  0  0  0
 20 21  2  0  0  0  0
 15 22  1  0  0  0  0
 22 23  1  0  0  0  0
 23 24  2  0  0  0  0
 24 25  1  0  0  0  0
 25 26  2  0  0  0  0
 26 27  1  0  0  0  0
 27 28  2  0  0  0  0
 22 29  2  0  0  0  0
  8 30  1  0  0  0  0
 30 31  1  0  0  0  0
 31 32  1  0  0  0  0
 30 33  2  0  0  0  0
 33  3  1  0  0  0  0
 29 12  1  0  0  0  0
 21 16  1  0  0  0  0
 28 23  1  0  0  0  0
M  END
>  <zinc_id>  (288) 
ZINC000252605659

>  <smiles>  (288) 
COc1cc(OC)c(C=NNc2nnc(-c3ccccc3)c(-c3ccccc3)n2)c(OC)c1

>  <source_line>  (288) 
288

>  <source_data>  (288) 
ZINC000252605659

>  <source_name>  (288) 


>  <source_label>  (288) 
ZINC000252605659

>  <found_by>  (288) 
ZINC

> <Gold.Version>
5.8.1

> <Gold.Id.Protein>
ID|ID_protein|mol2

> <Gold.Goldscore.Fitness>
76.6763

> <Gold.Goldscore.Internal.Vdw>
0.4420

> <Gold.Goldscore.Internal.Torsion>
-5.7733

> <Gold.Goldscore.External.Vdw>
50.2194

> <Gold.Goldscore.Internal.HBond>
0.0000

> <Gold.Goldscore.External.HBond>
9.4932

> <Gold.Goldscore.Internal.Correction>
-3.4627

> <Gold.Goldscore.Hbonds>
donor molecule, donor type, donor heavy atom, donor atom, acceptor molecule, acceptor atom, score
      P1  H   426  4822       L1     6  0.97
      P1  H   441  4841       L1    11  0.55
      P1  H  1819  6078       L1     2  1.00
      P1  H  1916  6166       L1    10  0.02

> <Gold.Goldscore.Internal.Vdw.Weighted>
0.4420

> <Gold.Goldscore.Internal.Torsion.Weighted>
-5.7733

> <Gold.Goldscore.External.Vdw.Weighted>
69.0516

> <Gold.Goldscore.Internal.HBond.Weighted>
0.0000

> <Gold.Goldscore.External.HBond.Weighted>
9.4932

> <Gold.Goldscore.Internal.Correction.Weighted>
-3.4627

> <Gold.Protein.RotatedTorsions>
[ 4464  112  111  109 ] final   -0.46 input   60.00 | X-H torsion
[ 4839  441  440  439 ] final  -68.32 input   60.00 | X-H torsion
[ 4985  758  757  756 ] final   11.76 input   60.00 | X-H torsion
[ 5271 1023 1022 1020 ] final  -27.59 input   60.00 | X-H torsion
[ 6036 1776 1775 1774 ] final -147.29 input   60.00 | X-H torsion
[ 6078 1819 1818 1817 ] final -163.76 input   60.00 | X-H torsion
[ 6166 1916 1915 1913 ] final  -73.34 input   60.00 | X-H torsion
[ 4818   65   64   63 ] final -120.47 input   60.00 | X-H torsion
[ 6268 1997 1996 1994 ] final   85.37 input   60.00 | X-H torsion
[ 8592   72   71   70 ] final  -39.10 input   60.00 | X-H torsion
[ 4356  100   99   97 ] final  100.19 input   60.00 | X-H torsion
[ 8510  202  201  200 ] final -153.31 input   60.00 | X-H torsion
[ 5330 1065 1064 1063 ] final   55.37 input   60.00 | X-H torsion
[ 6640 2347 2346 2344 ] final   -7.79 input   60.00 | X-H torsion
[ 4452  380  379  378 ] final -106.28 input   60.00 | X-H torsion
[ 4500  391  390  389 ] final  141.30 input   60.00 | X-H torsion

> <Gold.Protein.ActiveResidues>
 THR8    THR9    PRO10   ILE11   TYR12   TYR13   VAL14   ASN15   ALA16   HIS19  
 HIS22   SER25   VAL29   MET46   THR47   GLY48   THR49   ASP50   GLU51   HIS52  
 GLY53   GLN54   LYS55   VAL56   ALA57   GLU58   THR71   PHE78   ILE93   THR95  
 THR96   HIS100  GLU101  VAL104  TRP108  TYR126  VAL128  SER129  ASP130  GLU131 
 SER132  LEU210  SER211  ILE212  SER213  ARG214  LYS215  ARG216  SER218  VAL219 
 MET220  ASN221  TRP222  SER223  ILE224  PRO225  VAL226  HIS232  CYS233  ILE234 
 TYR235  VAL236  TRP237  LEU238  ASP239  ALA240  LEU241  PHE242  ASN243  TYR244 
 TYR245  THR246  HIS275  VAL276  VAL277  GLY278  LYS279  ASP280  ILE281  LEU282 
 LYS283  PHE284  HIS285  ALA286  ILE287  TYR288  TRP289  PRO290  PHE292  LEU304 
 TRP309 

> <Gold.Protein.RotatedAtoms>
  -32.5079   -8.4536   -6.0063 H   0  0  0  0  0  0  0  0  0  0  0  0  # atno 4356 bound_to 100 
  -30.6118   -8.6981   -9.6948 H   0  0  0  0  0  0  0  0  0  0  0  0  # atno 4452 bound_to 380 
  -44.9403  -11.8632  -16.0471 H   0  0  0  0  0  0  0  0  0  0  0  0  # atno 4464 bound_to 112 
  -35.1470  -10.1256  -16.9260 H   0  0  0  0  0  0  0  0  0  0  0  0  # atno 4500 bound_to 391 
  -30.7688  -16.8489   -3.2502 H   0  0  0  0  0  0  0  0  0  0  0  0  # atno 4818 bound_to 65  
  -49.2976  -11.0524  -12.9585 H   0  0  0  0  0  0  0  0  0  0  0  0  # atno 4839 bound_to 441 
  -48.8766  -10.9962  -14.5606 H   0  0  0  0  0  0  0  0  0  0  0  0  # atno 4840 bound_to 441 
  -47.8017  -11.5782  -13.4411 H   0  0  0  0  0  0  0  0  0  0  0  0  # atno 4841 bound_to 441 
  -37.1836  -18.1558  -16.8498 H   0  0  0  0  0  0  0  0  0  0  0  0  # atno 4985 bound_to 758 
  -54.2872  -17.1782  -13.4730 H   0  0  0  0  0  0  0  0  0  0  0  0  # atno 5271 bound_to 1023
  -54.3213  -14.7966   -8.4554 H   0  0  0  0  0  0  0  0  0  0  0  0  # atno 5330 bound_to 1065
  -53.8209  -17.4709  -17.4307 H   0  0  0  0  0  0  0  0  0  0  0  0  # atno 6036 bound_to 1776
  -46.0513  -18.1241  -18.4030 H   0  0  0  0  0  0  0  0  0  0  0  0  # atno 6078 bound_to 1819
  -48.9600  -15.0324  -11.7964 H   0  0  0  0  0  0  0  0  0  0  0  0  # atno 6166 bound_to 1916
  -35.2055  -15.2732   -5.7242 H   0  0  0  0  0  0  0  0  0  0  0  0  # atno 6268 bound_to 1997
  -49.5364  -21.4678   -1.9514 H   0  0  0  0  0  0  0  0  0  0  0  0  # atno 6640 bound_to 2347
  -35.5401   -7.6526   -2.2788 H   0  0  0  0  0  0  0  0  0  0  0  0  # atno 8510 bound_to 202 
  -32.9014   -9.6589   -4.3300 H   0  0  0  0  0  0  0  0  0  0  0  0  # atno 8592 bound_to 72  
  -45.2711  -10.3979  -16.6728 LP  0  0  0  0  0  0  0  0  0  0  0  0  # atno 8618 bound_to 112 
  -46.1998  -11.0062  -15.4752 LP  0  0  0  0  0  0  0  0  0  0  0  0  # atno 8619 bound_to 112 
  -38.5349  -17.2813  -17.0888 LP  0  0  0  0  0  0  0  0  0  0  0  0  # atno 8637 bound_to 758 
  -38.1092  -17.7354  -15.5791 LP  0  0  0  0  0  0  0  0  0  0  0  0  # atno 8638 bound_to 758 
  -54.7491  -16.1262  -14.6253 LP  0  0  0  0  0  0  0  0  0  0  0  0  # atno 8642 bound_to 1023
  -54.4346  -17.6808  -15.0137 LP  0  0  0  0  0  0  0  0  0  0  0  0  # atno 8643 bound_to 1023
  -55.1913  -16.8500  -18.0510 LP  0  0  0  0  0  0  0  0  0  0  0  0  # atno 8662 bound_to 1776
  -53.7476  -16.1851  -18.4255 LP  0  0  0  0  0  0  0  0  0  0  0  0  # atno 8663 bound_to 1776
  -46.0870  -17.2775  -19.7923 LP  0  0  0  0  0  0  0  0  0  0  0  0  # atno 8672 bound_to 1819
  -44.7497  -17.2585  -18.8554 LP  0  0  0  0  0  0  0  0  0  0  0  0  # atno 8673 bound_to 1819
  -49.8088  -15.7054  -10.5821 LP  0  0  0  0  0  0  0  0  0  0  0  0  # atno 8684 bound_to 1916
  -50.4930  -15.5144  -12.0524 LP  0  0  0  0  0  0  0  0  0  0  0  0  # atno 8685 bound_to 1916
  -31.7884  -15.7234   -3.8346 LP  0  0  0  0  0  0  0  0  0  0  0  0  # atno 8712 bound_to 65  
  -30.7219  -15.3327   -2.6613 LP  0  0  0  0  0  0  0  0  0  0  0  0  # atno 8713 bound_to 65  
  -34.3174  -15.1635   -4.3651 LP  0  0  0  0  0  0  0  0  0  0  0  0  # atno 8724 bound_to 1997
  -35.6922  -16.0447   -4.3766 LP  0  0  0  0  0  0  0  0  0  0  0  0  # atno 8725 bound_to 1997
  -31.9729   -8.5204   -5.0299 LP  0  0  0  0  0  0  0  0  0  0  0  0  # atno 8747 bound_to 72  
  -31.6407   -9.0310   -3.5148 LP  0  0  0  0  0  0  0  0  0  0  0  0  # atno 8748 bound_to 72  
  -33.2920   -7.2359   -5.2645 LP  0  0  0  0  0  0  0  0  0  0  0  0  # atno 8749 bound_to 100 
  -32.1003   -6.9124   -6.3330 LP  0  0  0  0  0  0  0  0  0  0  0  0  # atno 8750 bound_to 100 
  -35.4077   -6.0549   -2.5579 LP  0  0  0  0  0  0  0  0  0  0  0  0  # atno 8754 bound_to 202 
  -34.9271   -6.6794   -1.1276 LP  0  0  0  0  0  0  0  0  0  0  0  0  # atno 8755 bound_to 202 
  -53.8218  -16.1134   -7.6401 LP  0  0  0  0  0  0  0  0  0  0  0  0  # atno 8775 bound_to 1065
  -54.6125  -14.9170   -6.8589 LP  0  0  0  0  0  0  0  0  0  0  0  0  # atno 8776 bound_to 1065
  -49.2153  -20.1131   -2.7938 LP  0  0  0  0  0  0  0  0  0  0  0  0  # atno 8779 bound_to 2347
  -48.9396  -20.1622   -1.1850 LP  0  0  0  0  0  0  0  0  0  0  0  0  # atno 8780 bound_to 2347
  -30.4383   -8.5326   -8.0852 LP  0  0  0  0  0  0  0  0  0  0  0  0  # atno 8787 bound_to 380 
  -31.2522   -9.8104   -8.6946 LP  0  0  0  0  0  0  0  0  0  0  0  0  # atno 8788 bound_to 380 

$$$$
