unknown|11k_best|sdf|8326|dock1
  -GOLD-   3 721 1423D 1   1.00000     0.00000

 29 31  0  0  0  0  0  0  0  0  1 V2000
  -42.8450  -19.1224  -16.9505 C   0  0  0  0  0  0  0  0  0  0  0  0
  -44.2164  -18.7767  -16.8254 O   0  0  0  0  0  0  0  0  0  0  0  0
  -44.6156  -17.7227  -16.0239 C   0  0  0  0  0  0  0  0  0  0  0  0
  -43.7546  -16.9254  -15.3184 C   0  0  0  0  0  0  0  0  0  0  0  0
  -44.1001  -15.6392  -14.9626 C   0  0  0  0  0  0  0  0  0  0  0  0
  -45.3795  -15.1703  -15.1688 C   0  0  0  0  0  0  0  0  0  0  0  0
  -45.7923  -14.0244  -14.3481 C   0  0  0  0  0  0  0  0  0  0  0  0
  -46.9411  -14.0591  -13.6288 N   0  0  0  0  0  0  0  0  0  0  0  0
  -46.9209  -13.0335  -12.8135 O   0  0  0  0  0  0  0  0  0  0  0  0
  -45.6673  -12.6736  -12.5955 C   0  0  0  0  0  0  0  0  0  0  0  0
  -45.1127  -12.2308  -11.2782 C   0  0  0  0  0  0  0  0  0  0  0  0
  -43.6100  -12.4704  -11.2401 C   0  0  0  0  0  0  0  0  0  0  0  0
  -43.0771  -11.8400   -9.9588 C   0  0  0  0  0  0  0  0  0  0  0  0
  -42.4279  -12.9345   -9.1714 C   0  0  0  0  0  0  0  0  0  0  0  0
  -41.2785  -13.3758   -9.4331 O   0  0  0  0  0  0  0  0  0  0  0  0
  -43.0866  -13.4048   -7.9899 N   0  0  0  0  0  0  0  0  0  0  0  0
  -42.4621  -14.4394   -7.2299 C   0  0  0  0  0  0  0  0  0  0  0  0
  -43.0937  -14.8099   -6.0604 C   0  0  0  0  0  0  0  0  0  0  0  0
  -42.4331  -15.7202   -5.2489 C   0  0  0  0  0  0  0  0  0  0  0  0
  -41.3471  -16.4262   -5.7119 C   0  0  0  0  0  0  0  0  0  0  0  0
  -40.7063  -17.2576   -4.8570 F   0  0  0  0  0  0  0  0  0  0  0  0
  -40.6319  -15.8549   -6.7554 C   0  0  0  0  0  0  0  0  0  0  0  0
  -39.0534  -16.4586   -7.2295 Cl  0  0  0  0  0  0  0  0  0  0  0  0
  -41.2356  -14.9383   -7.5781 C   0  0  0  0  0  0  0  0  0  0  0  0
  -44.9955  -13.1677  -13.6635 N   0  0  0  0  0  0  0  0  0  0  0  0
  -46.3218  -16.0701  -15.6135 C   0  0  0  0  0  0  0  0  0  0  0  0
  -45.9278  -17.2960  -16.1331 C   0  0  0  0  0  0  0  0  0  0  0  0
  -46.8648  -18.2150  -16.6006 O   0  0  0  0  0  0  0  0  0  0  0  0
  -48.1982  -17.7745  -16.8137 C   0  0  0  0  0  0  0  0  0  0  0  0
  1  2  1  0  0  0  0
  2  3  1  0  0  0  0
  3  4  2  0  0  0  0
  4  5  1  0  0  0  0
  5  6  2  0  0  0  0
  6  7  1  0  0  0  0
  7  8  2  0  0  0  0
  8  9  1  0  0  0  0
  9 10  1  0  0  0  0
 10 11  1  0  0  0  0
 11 12  1  0  0  0  0
 12 13  1  0  0  0  0
 13 14  1  0  0  0  0
 14 15  2  0  0  0  0
 14 16  1  0  0  0  0
 16 17  1  0  0  0  0
 17 18  2  0  0  0  0
 18 19  1  0  0  0  0
 19 20  2  0  0  0  0
 20 21  1  0  0  0  0
 20 22  1  0  0  0  0
 22 23  1  0  0  0  0
 22 24  2  0  0  0  0
 10 25  2  0  0  0  0
  6 26  1  0  0  0  0
 26 27  2  0  0  0  0
 27 28  1  0  0  0  0
 28 29  1  0  0  0  0
 27  3  1  0  0  0  0
 25  7  1  0  0  0  0
 24 17  1  0  0  0  0
M  END
>  <zinc_id>  (326) 
ZINC000033000174

>  <smiles>  (326) 
COc1ccc(-c2noc(CCCC(=O)Nc3ccc(F)c(Cl)c3)n2)cc1OC

>  <source_line>  (326) 
326

>  <source_data>  (326) 
ZINC000033000174

>  <source_name>  (326) 


>  <source_label>  (326) 
ZINC000033000174

>  <found_by>  (326) 
ZINC

> <Gold.Version>
5.8.1

> <Gold.Id.Protein>
ID|ID_protein|mol2

> <Gold.Goldscore.Fitness>
76.9492

> <Gold.Goldscore.Internal.Vdw>
-1.0567

> <Gold.Goldscore.Internal.Torsion>
-3.0310

> <Gold.Goldscore.External.Vdw>
51.7712

> <Gold.Goldscore.Internal.HBond>
0.0000

> <Gold.Goldscore.External.HBond>
6.3522

> <Gold.Goldscore.Internal.Correction>
-3.4993

> <Gold.Goldscore.Hbonds>
donor molecule, donor type, donor heavy atom, donor atom, acceptor molecule, acceptor atom, score
      P1  H   112  4464       L1     9  0.02
      P1  H   441  4840       L1     9  1.00
      P1  H  1916  6166       L1     9  0.16

> <Gold.Goldscore.Internal.Vdw.Weighted>
-1.0567

> <Gold.Goldscore.Internal.Torsion.Weighted>
-3.0310

> <Gold.Goldscore.External.Vdw.Weighted>
71.1853

> <Gold.Goldscore.Internal.HBond.Weighted>
0.0000

> <Gold.Goldscore.External.HBond.Weighted>
6.3522

> <Gold.Goldscore.Internal.Correction.Weighted>
-3.4993

> <Gold.Protein.RotatedTorsions>
[ 4464  112  111  109 ] final   73.18 input   60.00 | X-H torsion
[ 4839  441  440  439 ] final   59.89 input   60.00 | X-H torsion
[ 4985  758  757  756 ] final   57.68 input   60.00 | X-H torsion
[ 5271 1023 1022 1020 ] final  -54.48 input   60.00 | X-H torsion
[ 6036 1776 1775 1774 ] final -125.61 input   60.00 | X-H torsion
[ 6078 1819 1818 1817 ] final   61.97 input   60.00 | X-H torsion
[ 6166 1916 1915 1913 ] final  -61.82 input   60.00 | X-H torsion
[ 4818   65   64   63 ] final  -78.42 input   60.00 | X-H torsion
[ 6268 1997 1996 1994 ] final  -89.96 input   60.00 | X-H torsion
[ 8592   72   71   70 ] final  -81.44 input   60.00 | X-H torsion
[ 4356  100   99   97 ] final  158.06 input   60.00 | X-H torsion
[ 8510  202  201  200 ] final   -6.44 input   60.00 | X-H torsion
[ 5330 1065 1064 1063 ] final -165.37 input   60.00 | X-H torsion
[ 6640 2347 2346 2344 ] final  150.50 input   60.00 | X-H torsion
[ 4452  380  379  378 ] final  -75.21 input   60.00 | X-H torsion
[ 4500  391  390  389 ] final  -55.64 input   60.00 | X-H torsion

> <Gold.Protein.ActiveResidues>
 THR8    THR9    PRO10   ILE11   TYR12   TYR13   VAL14   ASN15   ALA16   HIS19  
 HIS22   SER25   VAL29   MET46   THR47   GLY48   THR49   ASP50   GLU51   HIS52  
 GLY53   GLN54   LYS55   VAL56   ALA57   GLU58   THR71   PHE78   ILE93   THR95  
 THR96   HIS100  GLU101  VAL104  TRP108  TYR126  VAL128  SER129  ASP130  GLU131 
 SER132  LEU210  SER211  ILE212  SER213  ARG214  LYS215  ARG216  SER218  VAL219 
 MET220  ASN221  TRP222  SER223  ILE224  PRO225  VAL226  HIS232  CYS233  ILE234 
 TYR235  VAL236  TRP237  LEU238  ASP239  ALA240  LEU241  PHE242  ASN243  TYR244 
 TYR245  THR246  HIS275  VAL276  VAL277  GLY278  LYS279  ASP280  ILE281  LEU282 
 LYS283  PHE284  HIS285  ALA286  ILE287  TYR288  TRP289  PRO290  PHE292  LEU304 
 TRP309 

> <Gold.Protein.RotatedAtoms>
  -31.9884   -7.8670   -6.4610 H   0  0  0  0  0  0  0  0  0  0  0  0  # atno 4356 bound_to 100 
  -30.8746   -9.1214   -9.7506 H   0  0  0  0  0  0  0  0  0  0  0  0  # atno 4452 bound_to 380 
  -45.8304  -11.6426  -15.4004 H   0  0  0  0  0  0  0  0  0  0  0  0  # atno 4464 bound_to 112 
  -33.7034  -10.7203  -15.9298 H   0  0  0  0  0  0  0  0  0  0  0  0  # atno 4500 bound_to 391 
  -30.4423  -16.4727   -2.7996 H   0  0  0  0  0  0  0  0  0  0  0  0  # atno 4818 bound_to 65  
  -48.7511  -11.0418  -14.5911 H   0  0  0  0  0  0  0  0  0  0  0  0  # atno 4839 bound_to 441 
  -47.8451  -11.5789  -13.3113 H   0  0  0  0  0  0  0  0  0  0  0  0  # atno 4840 bound_to 441 
  -49.3797  -11.0061  -13.0579 H   0  0  0  0  0  0  0  0  0  0  0  0  # atno 4841 bound_to 441 
  -37.2384  -18.2114  -16.1236 H   0  0  0  0  0  0  0  0  0  0  0  0  # atno 4985 bound_to 758 
  -54.3908  -16.7553  -13.4691 H   0  0  0  0  0  0  0  0  0  0  0  0  # atno 5271 bound_to 1023
  -54.4977  -15.1903   -6.7539 H   0  0  0  0  0  0  0  0  0  0  0  0  # atno 5330 bound_to 1065
  -53.5457  -17.2853  -17.5481 H   0  0  0  0  0  0  0  0  0  0  0  0  # atno 6036 bound_to 1776
  -45.8845  -17.1671  -19.8289 H   0  0  0  0  0  0  0  0  0  0  0  0  # atno 6078 bound_to 1819
  -49.0543  -15.0183  -11.9584 H   0  0  0  0  0  0  0  0  0  0  0  0  # atno 6166 bound_to 1916
  -34.8731  -15.6739   -3.9273 H   0  0  0  0  0  0  0  0  0  0  0  0  # atno 6268 bound_to 1997
  -48.8863  -19.7726   -1.6596 H   0  0  0  0  0  0  0  0  0  0  0  0  # atno 6640 bound_to 2347
  -34.9314   -6.2779   -1.2988 H   0  0  0  0  0  0  0  0  0  0  0  0  # atno 8510 bound_to 202 
  -32.8395   -9.3088   -4.9052 H   0  0  0  0  0  0  0  0  0  0  0  0  # atno 8592 bound_to 72  
  -44.7147  -11.3743  -16.5542 LP  0  0  0  0  0  0  0  0  0  0  0  0  # atno 8618 bound_to 112 
  -45.8598  -10.2520  -16.2451 LP  0  0  0  0  0  0  0  0  0  0  0  0  # atno 8619 bound_to 112 
  -37.9686  -17.5930  -17.4398 LP  0  0  0  0  0  0  0  0  0  0  0  0  # atno 8637 bound_to 758 
  -38.6202  -17.3677  -15.9595 LP  0  0  0  0  0  0  0  0  0  0  0  0  # atno 8638 bound_to 758 
  -54.7604  -16.3513  -15.0015 LP  0  0  0  0  0  0  0  0  0  0  0  0  # atno 8642 bound_to 1023
  -54.3189  -17.8816  -14.6414 LP  0  0  0  0  0  0  0  0  0  0  0  0  # atno 8643 bound_to 1023
  -55.1399  -17.1239  -17.8317 LP  0  0  0  0  0  0  0  0  0  0  0  0  # atno 8662 bound_to 1776
  -54.0762  -16.0981  -18.5265 LP  0  0  0  0  0  0  0  0  0  0  0  0  # atno 8663 bound_to 1776
  -44.7723  -17.3885  -18.6617 LP  0  0  0  0  0  0  0  0  0  0  0  0  # atno 8672 bound_to 1819
  -46.2324  -18.1113  -18.5500 LP  0  0  0  0  0  0  0  0  0  0  0  0  # atno 8673 bound_to 1819
  -49.6303  -15.6434  -10.5708 LP  0  0  0  0  0  0  0  0  0  0  0  0  # atno 8684 bound_to 1916
  -50.5765  -15.5905  -11.9006 LP  0  0  0  0  0  0  0  0  0  0  0  0  # atno 8685 bound_to 1916
  -31.6272  -16.3760   -3.9107 LP  0  0  0  0  0  0  0  0  0  0  0  0  # atno 8712 bound_to 65  
  -31.2120  -15.0591   -3.0390 LP  0  0  0  0  0  0  0  0  0  0  0  0  # atno 8713 bound_to 65  
  -35.8477  -15.8572   -5.2174 LP  0  0  0  0  0  0  0  0  0  0  0  0  # atno 8724 bound_to 1997
  -34.4966  -14.9475   -5.3339 LP  0  0  0  0  0  0  0  0  0  0  0  0  # atno 8725 bound_to 1997
  -31.5326   -8.4189   -4.5205 LP  0  0  0  0  0  0  0  0  0  0  0  0  # atno 8747 bound_to 72  
  -32.1434   -9.4851   -3.4450 LP  0  0  0  0  0  0  0  0  0  0  0  0  # atno 8748 bound_to 72  
  -33.1814   -8.1332   -5.3868 LP  0  0  0  0  0  0  0  0  0  0  0  0  # atno 8749 bound_to 100 
  -32.7341   -6.6059   -5.7528 LP  0  0  0  0  0  0  0  0  0  0  0  0  # atno 8750 bound_to 100 
  -35.3916   -7.7283   -1.8753 LP  0  0  0  0  0  0  0  0  0  0  0  0  # atno 8754 bound_to 202 
  -35.5563   -6.3905   -2.7971 LP  0  0  0  0  0  0  0  0  0  0  0  0  # atno 8755 bound_to 202 
  -54.4665  -14.5914   -8.2666 LP  0  0  0  0  0  0  0  0  0  0  0  0  # atno 8775 bound_to 1065
  -53.7901  -16.0426   -7.9459 LP  0  0  0  0  0  0  0  0  0  0  0  0  # atno 8776 bound_to 1065
  -49.3756  -21.2993   -1.3808 LP  0  0  0  0  0  0  0  0  0  0  0  0  # atno 8779 bound_to 2347
  -49.4340  -20.6832   -2.8920 LP  0  0  0  0  0  0  0  0  0  0  0  0  # atno 8780 bound_to 2347
  -30.2950   -8.2690   -8.4914 LP  0  0  0  0  0  0  0  0  0  0  0  0  # atno 8787 bound_to 380 
  -31.1308   -9.6477   -8.2322 LP  0  0  0  0  0  0  0  0  0  0  0  0  # atno 8788 bound_to 380 

$$$$
