unknown|11k_best|sdf|8252|dock1
  -GOLD-   3 721 0 83D 1   1.00000     0.00000

 30 34  0  0  0  0  0  0  0  0  1 V2000
  -51.5506  -20.9790   -8.3109 C   0  0  0  0  0  0  0  0  0  0  0  0
  -51.2359  -20.3585   -8.2460 O   0  0  0  0  0  0  0  0  0  0  0  0
  -51.1757  -19.0916   -7.6575 C   0  0  0  0  0  0  0  0  0  0  0  0
  -52.3258  -18.6940   -6.9870 C   0  0  0  0  0  0  0  0  0  0  0  0
  -52.6763  -17.3623   -6.8703 C   0  0  0  0  0  0  0  0  0  0  0  0
  -51.9326  -16.4147   -7.5534 C   0  0  0  0  0  0  0  0  0  0  0  0
  -52.5042  -15.2786   -8.0028 F   0  0  0  0  0  0  0  0  0  0  0  0
  -50.6123  -16.7591   -7.8170 C   0  0  0  0  0  0  0  0  0  0  0  0
  -49.7797  -15.7151   -8.4540 C   0  0  0  0  0  0  0  0  0  0  0  0
  -49.0019  -14.9473   -7.5292 N   0  0  0  0  0  0  0  0  0  0  0  0
  -49.4990  -14.9398   -6.1847 C   0  0  0  0  0  0  0  0  0  0  0  0
  -49.1836  -13.6880   -5.4203 C   0  0  0  0  0  0  0  0  0  0  0  0
  -47.8394  -13.0995   -5.7418 C   0  0  0  0  0  0  0  0  0  0  0  0
  -47.4761  -13.1791   -7.1919 C   0  0  2  0  0  0  0  0  0  0  0  0
  -46.4165  -14.2415   -7.3970 C   0  0  0  0  0  0  0  0  0  0  0  0
  -45.8189  -13.8212   -8.7129 C   0  0  0  0  0  0  0  0  0  0  0  0
  -46.1531  -12.4373   -8.9223 N   0  0  0  0  0  0  0  0  0  0  0  0
  -47.0407  -12.3142  -10.0649 C   0  0  0  0  0  0  0  0  0  0  0  0
  -46.4518  -13.0306  -11.2147 C   0  0  0  0  0  0  0  0  0  0  0  0
  -47.0442  -13.2967  -12.4039 N   0  0  0  0  0  0  0  0  0  0  0  0
  -46.1587  -13.8904  -13.2273 C   0  0  0  0  0  0  0  0  0  0  0  0
  -46.1894  -14.4631  -14.4761 C   0  0  0  0  0  0  0  0  0  0  0  0
  -45.1986  -15.3795  -14.7714 C   0  0  0  0  0  0  0  0  0  0  0  0
  -43.9363  -15.1045  -14.2615 C   0  0  0  0  0  0  0  0  0  0  0  0
  -43.7914  -14.2321  -13.2143 C   0  0  0  0  0  0  0  0  0  0  0  0
  -44.9374  -13.8109  -12.5758 C   0  0  0  0  0  0  0  0  0  0  0  0
  -45.1283  -13.0079  -11.5023 N   0  0  0  0  0  0  0  0  0  0  0  0
  -46.8117  -11.9561   -7.7349 C   0  0  0  0  0  0  0  0  0  0  0  0
  -48.6858  -13.6126   -8.0023 C   0  0  0  0  0  0  0  0  0  0  0  0
  -50.3480  -18.0931   -8.1052 C   0  0  0  0  0  0  0  0  0  0  0  0
  1  2  1  0  0  0  0
  2  3  1  0  0  0  0
  3  4  2  0  0  0  0
  4  5  1  0  0  0  0
  5  6  2  0  0  0  0
  6  7  1  0  0  0  0
  6  8  1  0  0  0  0
  8  9  1  0  0  0  0
  9 10  1  0  0  0  0
 10 11  1  0  0  0  0
 11 12  1  0  0  0  0
 12 13  1  0  0  0  0
 14 13  1  0  0  0  0
 14 15  1  0  0  0  0
 15 16  1  0  0  0  0
 16 17  1  0  0  0  0
 17 18  1  0  0  0  0
 18 19  1  0  0  0  0
 19 20  2  0  0  0  0
 20 21  1  0  0  0  0
 21 22  2  0  0  0  0
 22 23  1  0  0  0  0
 23 24  2  0  0  0  0
 24 25  1  0  0  0  0
 25 26  2  0  0  0  0
 26 27  1  0  0  0  0
 17 28  1  0  0  0  0
 14 29  1  0  0  0  0
  8 30  2  0  0  0  0
 30  3  1  0  0  0  0
 29 10  1  0  0  0  0
 28 14  1  0  0  0  0
 27 19  1  0  0  0  0
 26 21  1  0  0  0  0
M  END
>  <zinc_id>  (252) 
ZINC000012445144

>  <smiles>  (252) 
COc1ccc(F)c(CN2CCC[C@@]3(CCN(Cc4nc5ccccc5[nH]4)C3)C2)c1

>  <source_line>  (252) 
252

>  <source_data>  (252) 
ZINC000012445144

>  <source_name>  (252) 


>  <source_label>  (252) 
ZINC000012445144

>  <found_by>  (252) 
ZINC

> <Gold.Version>
5.8.1

> <Gold.Id.Protein>
ID|ID_protein|mol2

> <Gold.Goldscore.Fitness>
53.8760

> <Gold.Goldscore.Internal.Vdw>
-0.3029

> <Gold.Goldscore.Internal.Torsion>
-1.1918

> <Gold.Goldscore.External.Vdw>
33.1377

> <Gold.Goldscore.Internal.HBond>
0.0000

> <Gold.Goldscore.External.HBond>
12.0412

> <Gold.Goldscore.Internal.Correction>
2.2349

> <Gold.Goldscore.Hbonds>
donor molecule, donor type, donor heavy atom, donor atom, acceptor molecule, acceptor atom, score
      P1  H   441  4841       L1    20  0.67
      P1  H  1741  5997       L1     2  1.00
      P1  H  1916  6166       L1    10  0.01
      P1  H  1932  6181       L1     2  1.00

> <Gold.Goldscore.Internal.Vdw.Weighted>
-0.3029

> <Gold.Goldscore.Internal.Torsion.Weighted>
-1.1918

> <Gold.Goldscore.External.Vdw.Weighted>
45.5643

> <Gold.Goldscore.Internal.HBond.Weighted>
0.0000

> <Gold.Goldscore.External.HBond.Weighted>
12.0412

> <Gold.Goldscore.Internal.Correction.Weighted>
2.2349

> <Gold.Protein.RotatedTorsions>
[ 4464  112  111  109 ] final  -89.55 input   60.00 | X-H torsion
[ 4839  441  440  439 ] final  -49.86 input   60.00 | X-H torsion
[ 4985  758  757  756 ] final  -32.77 input   60.00 | X-H torsion
[ 5271 1023 1022 1020 ] final  -44.64 input   60.00 | X-H torsion
[ 6036 1776 1775 1774 ] final   31.06 input   60.00 | X-H torsion
[ 6078 1819 1818 1817 ] final -153.67 input   60.00 | X-H torsion
[ 6166 1916 1915 1913 ] final -169.15 input   60.00 | X-H torsion
[ 4818   65   64   63 ] final  -39.10 input   60.00 | X-H torsion
[ 6268 1997 1996 1994 ] final  166.61 input   60.00 | X-H torsion
[ 8592   72   71   70 ] final  -90.51 input   60.00 | X-H torsion
[ 4356  100   99   97 ] final -164.27 input   60.00 | X-H torsion
[ 8510  202  201  200 ] final   38.38 input   60.00 | X-H torsion
[ 5330 1065 1064 1063 ] final  157.85 input   60.00 | X-H torsion
[ 6640 2347 2346 2344 ] final -156.49 input   60.00 | X-H torsion
[ 4452  380  379  378 ] final  -76.18 input   60.00 | X-H torsion
[ 4500  391  390  389 ] final  127.35 input   60.00 | X-H torsion

> <Gold.Protein.ActiveResidues>
 THR8    THR9    PRO10   ILE11   TYR12   TYR13   VAL14   ASN15   ALA16   HIS19  
 HIS22   SER25   VAL29   MET46   THR47   GLY48   THR49   ASP50   GLU51   HIS52  
 GLY53   GLN54   LYS55   VAL56   ALA57   GLU58   THR71   PHE78   ILE93   THR95  
 THR96   HIS100  GLU101  VAL104  TRP108  TYR126  VAL128  SER129  ASP130  GLU131 
 SER132  LEU210  SER211  ILE212  SER213  ARG214  LYS215  ARG216  SER218  VAL219 
 MET220  ASN221  TRP222  SER223  ILE224  PRO225  VAL226  HIS232  CYS233  ILE234 
 TYR235  VAL236  TRP237  LEU238  ASP239  ALA240  LEU241  PHE242  ASN243  TYR244 
 TYR245  THR246  HIS275  VAL276  VAL277  GLY278  LYS279  ASP280  ILE281  LEU282 
 LYS283  PHE284  HIS285  ALA286  ILE287  TYR288  TRP289  PRO290  PHE292  LEU304 
 TRP309 

> <Gold.Protein.RotatedAtoms>
  -31.9663   -7.2629   -6.4660 H   0  0  0  0  0  0  0  0  0  0  0  0  # atno 4356 bound_to 100 
  -30.8665   -9.1079   -9.7530 H   0  0  0  0  0  0  0  0  0  0  0  0  # atno 4452 bound_to 380 
  -44.9274  -10.7540  -16.7502 H   0  0  0  0  0  0  0  0  0  0  0  0  # atno 4464 bound_to 112 
  -35.2653  -10.3137  -16.8779 H   0  0  0  0  0  0  0  0  0  0  0  0  # atno 4500 bound_to 391 
  -30.4384  -15.8803   -2.5848 H   0  0  0  0  0  0  0  0  0  0  0  0  # atno 4818 bound_to 65  
  -49.4613  -10.9541  -13.1989 H   0  0  0  0  0  0  0  0  0  0  0  0  # atno 4839 bound_to 441 
  -48.5919  -11.1033  -14.6022 H   0  0  0  0  0  0  0  0  0  0  0  0  # atno 4840 bound_to 441 
  -47.9228  -11.5694  -13.1592 H   0  0  0  0  0  0  0  0  0  0  0  0  # atno 4841 bound_to 441 
  -37.5719  -17.8492  -17.3582 H   0  0  0  0  0  0  0  0  0  0  0  0  # atno 4985 bound_to 758 
  -54.3490  -16.9089  -13.4470 H   0  0  0  0  0  0  0  0  0  0  0  0  # atno 5271 bound_to 1023
  -54.6813  -14.7090   -7.0431 H   0  0  0  0  0  0  0  0  0  0  0  0  # atno 5330 bound_to 1065
  -54.6594  -16.1940  -18.5133 H   0  0  0  0  0  0  0  0  0  0  0  0  # atno 6036 bound_to 1776
  -45.9105  -18.1134  -18.3184 H   0  0  0  0  0  0  0  0  0  0  0  0  # atno 6078 bound_to 1819
  -49.4415  -15.5659  -10.6073 H   0  0  0  0  0  0  0  0  0  0  0  0  # atno 6166 bound_to 1916
  -35.8706  -15.9601   -4.9681 H   0  0  0  0  0  0  0  0  0  0  0  0  # atno 6268 bound_to 1997
  -49.0498  -19.8135   -2.4779 H   0  0  0  0  0  0  0  0  0  0  0  0  # atno 6640 bound_to 2347
  -35.1024   -5.8884   -1.8721 H   0  0  0  0  0  0  0  0  0  0  0  0  # atno 8510 bound_to 202 
  -32.7760   -9.2095   -4.9948 H   0  0  0  0  0  0  0  0  0  0  0  0  # atno 8592 bound_to 72  
  -46.1949  -10.5817  -15.7442 LP  0  0  0  0  0  0  0  0  0  0  0  0  # atno 8618 bound_to 112 
  -45.2890  -11.9395  -15.6957 LP  0  0  0  0  0  0  0  0  0  0  0  0  # atno 8619 bound_to 112 
  -38.7408  -17.2367  -16.4061 LP  0  0  0  0  0  0  0  0  0  0  0  0  # atno 8637 bound_to 758 
  -37.5121  -18.0888  -15.7498 LP  0  0  0  0  0  0  0  0  0  0  0  0  # atno 8638 bound_to 758 
  -54.7633  -16.2494  -14.8759 LP  0  0  0  0  0  0  0  0  0  0  0  0  # atno 8642 bound_to 1023
  -54.3582  -17.8289  -14.7893 LP  0  0  0  0  0  0  0  0  0  0  0  0  # atno 8643 bound_to 1023
  -53.3149  -16.8440  -17.8668 LP  0  0  0  0  0  0  0  0  0  0  0  0  # atno 8662 bound_to 1776
  -54.7796  -17.4770  -17.5195 LP  0  0  0  0  0  0  0  0  0  0  0  0  # atno 8663 bound_to 1776
  -46.2120  -17.3695  -19.7340 LP  0  0  0  0  0  0  0  0  0  0  0  0  # atno 8672 bound_to 1819
  -44.7665  -17.1773  -18.9989 LP  0  0  0  0  0  0  0  0  0  0  0  0  # atno 8673 bound_to 1819
  -50.6299  -15.6660  -11.7143 LP  0  0  0  0  0  0  0  0  0  0  0  0  # atno 8684 bound_to 1916
  -49.1871  -15.0164  -12.1177 LP  0  0  0  0  0  0  0  0  0  0  0  0  # atno 8685 bound_to 1916
  -31.2234  -16.8029   -3.6713 LP  0  0  0  0  0  0  0  0  0  0  0  0  # atno 8712 bound_to 65  
  -31.6197  -15.2286   -3.4947 LP  0  0  0  0  0  0  0  0  0  0  0  0  # atno 8713 bound_to 65  
  -34.6810  -15.0003   -5.5262 LP  0  0  0  0  0  0  0  0  0  0  0  0  # atno 8724 bound_to 1997
  -34.6588  -15.5161   -3.9769 LP  0  0  0  0  0  0  0  0  0  0  0  0  # atno 8725 bound_to 1997
  -31.4767   -8.4431   -4.3844 LP  0  0  0  0  0  0  0  0  0  0  0  0  # atno 8747 bound_to 72  
  -32.2633   -9.5609   -3.4909 LP  0  0  0  0  0  0  0  0  0  0  0  0  # atno 8748 bound_to 72  
  -32.8017   -8.4545   -5.7378 LP  0  0  0  0  0  0  0  0  0  0  0  0  # atno 8749 bound_to 100 
  -33.1360   -6.8929   -5.3969 LP  0  0  0  0  0  0  0  0  0  0  0  0  # atno 8750 bound_to 100 
  -35.1084   -7.4103   -1.2961 LP  0  0  0  0  0  0  0  0  0  0  0  0  # atno 8754 bound_to 202 
  -35.6672   -7.1008   -2.7990 LP  0  0  0  0  0  0  0  0  0  0  0  0  # atno 8755 bound_to 202 
  -54.1791  -15.0225   -8.5589 LP  0  0  0  0  0  0  0  0  0  0  0  0  # atno 8775 bound_to 1065
  -53.8926  -16.0962   -7.3623 LP  0  0  0  0  0  0  0  0  0  0  0  0  # atno 8776 bound_to 1065
  -49.0657  -20.5911   -1.0485 LP  0  0  0  0  0  0  0  0  0  0  0  0  # atno 8779 bound_to 2347
  -49.5792  -21.3503   -2.4001 LP  0  0  0  0  0  0  0  0  0  0  0  0  # atno 8780 bound_to 2347
  -30.2976   -8.2743   -8.4765 LP  0  0  0  0  0  0  0  0  0  0  0  0  # atno 8787 bound_to 380 
  -31.1364   -9.6560   -8.2447 LP  0  0  0  0  0  0  0  0  0  0  0  0  # atno 8788 bound_to 380 

$$$$
