unknown|11k_best|sdf|8313|dock2
  -GOLD-   3 721 1263D 1   1.00000     0.00000

 30 32  0  0  0  0  0  0  0  0  1 V2000
  -37.6285  -16.1032   -7.6123 C   0  0  0  0  0  0  0  0  0  0  0  0
  -38.2808  -15.9180   -7.1274 C   0  0  0  0  0  0  0  0  0  0  0  0
  -39.2359  -14.9500   -7.5359 O   0  0  0  0  0  0  0  0  0  0  0  0
  -38.9338  -13.6151   -7.2543 C   0  0  0  0  0  0  0  0  0  0  0  0
  -37.6999  -13.3610   -7.1087 O   0  0  0  0  0  0  0  0  0  0  0  0
  -39.5908  -12.5668   -8.2219 C   0  0  2  0  0  0  0  0  0  0  0  0
  -39.9002  -11.5129   -7.0579 C   0  0  0  0  0  0  0  0  0  0  0  0
  -40.6716  -10.3922   -7.7064 C   0  0  0  0  0  0  0  0  0  0  0  0
  -41.3323  -13.3704   -8.1427 S   0  0  0  0  0  0  0  0  0  0  0  0
  -42.2084  -12.8383   -9.6162 C   0  0  0  0  0  0  0  0  0  0  0  0
  -42.4124  -11.4907   -9.8912 C   0  0  0  0  0  0  0  0  0  0  0  0
  -43.5459  -11.0532  -10.5661 C   0  0  0  0  0  0  0  0  0  0  0  0
  -44.3759  -12.0696  -11.0259 C   0  0  0  0  0  0  0  0  0  0  0  0
  -45.5183  -12.0826  -11.7530 N   0  0  0  0  0  0  0  0  0  0  0  0
  -45.5889  -13.2124  -12.4484 N   0  0  0  0  0  0  0  0  0  0  0  0
  -44.4594  -13.9289  -12.2327 C   0  0  0  0  0  0  0  0  0  0  0  0
  -43.9341  -15.0286  -13.1016 C   0  0  0  0  0  0  0  0  0  0  0  0
  -44.2439  -14.6881  -14.5507 C   0  0  0  0  0  0  0  0  0  0  0  0
  -43.7913  -15.7346  -15.4539 N   0  0  0  0  0  0  0  0  0  0  0  0
  -44.7791  -16.5037  -16.1467 C   0  0  0  0  0  0  0  0  0  0  0  0
  -44.3843  -17.3443  -16.9827 O   0  0  0  0  0  0  0  0  0  0  0  0
  -46.1616  -16.4371  -15.6570 C   0  0  0  0  0  0  0  0  0  0  0  0
  -46.7363  -15.2050  -15.3753 C   0  0  0  0  0  0  0  0  0  0  0  0
  -48.1081  -15.0211  -15.5004 C   0  0  0  0  0  0  0  0  0  0  0  0
  -48.8559  -15.8894  -16.2876 C   0  0  0  0  0  0  0  0  0  0  0  0
  -49.8871  -15.3894  -17.2500 C   0  0  0  0  0  0  0  0  0  0  0  0
  -48.3649  -17.1882  -16.3533 C   0  0  0  0  0  0  0  0  0  0  0  0
  -47.0450  -17.4467  -16.0141 C   0  0  0  0  0  0  0  0  0  0  0  0
  -43.8514  -13.3054  -11.2064 N   0  0  0  0  0  0  0  0  0  0  0  0
  -42.8667  -13.7091  -10.4180 N   0  0  0  0  0  0  0  0  0  0  0  0
  1  2  1  0  0  0  0
  2  3  1  0  0  0  0
  3  4  1  0  0  0  0
  4  5  2  0  0  0  0
  6  4  1  0  0  0  0
  6  7  1  0  0  0  0
  7  8  1  0  0  0  0
  6  9  1  0  0  0  0
  9 10  1  0  0  0  0
 10 11  1  0  0  0  0
 11 12  2  0  0  0  0
 12 13  1  0  0  0  0
 13 14  2  0  0  0  0
 14 15  1  0  0  0  0
 15 16  2  0  0  0  0
 16 17  1  0  0  0  0
 17 18  1  0  0  0  0
 18 19  1  0  0  0  0
 19 20  1  0  0  0  0
 20 21  2  0  0  0  0
 20 22  1  0  0  0  0
 22 23  2  0  0  0  0
 23 24  1  0  0  0  0
 24 25  2  0  0  0  0
 25 26  1  0  0  0  0
 25 27  1  0  0  0  0
 27 28  2  0  0  0  0
 16 29  1  0  0  0  0
 29 30  1  0  0  0  0
 30 10  2  0  0  0  0
 29 13  1  0  0  0  0
 28 22  1  0  0  0  0
M  END
>  <zinc_id>  (313) 
ZINC000009578544

>  <smiles>  (313) 
CCOC(=O)[C@H](CC)Sc1ccc2nnc(CCNC(=O)c3ccc(C)cc3)n2n1

>  <source_line>  (313) 
313

>  <source_data>  (313) 
ZINC000009578544

>  <source_name>  (313) 


>  <source_label>  (313) 
ZINC000009578544

>  <found_by>  (313) 
ZINC

> <Gold.Version>
5.8.1

> <Gold.Id.Protein>
ID|ID_protein|mol2

> <Gold.Goldscore.Fitness>
59.5624

> <Gold.Goldscore.Internal.Vdw>
-0.5358

> <Gold.Goldscore.Internal.Torsion>
-7.6297

> <Gold.Goldscore.External.Vdw>
46.7671

> <Gold.Goldscore.Internal.HBond>
0.0000

> <Gold.Goldscore.External.HBond>
2.4396

> <Gold.Goldscore.Internal.Correction>
-0.9836

> <Gold.Goldscore.Hbonds>
donor molecule, donor type, donor heavy atom, donor atom, acceptor molecule, acceptor atom, score
      P1  H   441  4839       L1    15  0.13
      P1  H  1819  6078       L1    21  0.73
      P1  H    83  8591       L1     5  0.09

> <Gold.Goldscore.Internal.Vdw.Weighted>
-0.5358

> <Gold.Goldscore.Internal.Torsion.Weighted>
-7.6297

> <Gold.Goldscore.External.Vdw.Weighted>
64.3047

> <Gold.Goldscore.Internal.HBond.Weighted>
0.0000

> <Gold.Goldscore.External.HBond.Weighted>
2.4396

> <Gold.Goldscore.Internal.Correction.Weighted>
-0.9836

> <Gold.Protein.RotatedTorsions>
[ 4464  112  111  109 ] final  -47.89 input   60.00 | X-H torsion
[ 4839  441  440  439 ] final -177.20 input   60.00 | X-H torsion
[ 4985  758  757  756 ] final  163.48 input   60.00 | X-H torsion
[ 5271 1023 1022 1020 ] final    1.57 input   60.00 | X-H torsion
[ 6036 1776 1775 1774 ] final   77.36 input   60.00 | X-H torsion
[ 6078 1819 1818 1817 ] final  -83.36 input   60.00 | X-H torsion
[ 6166 1916 1915 1913 ] final  -77.05 input   60.00 | X-H torsion
[ 4818   65   64   63 ] final  168.59 input   60.00 | X-H torsion
[ 6268 1997 1996 1994 ] final   56.95 input   60.00 | X-H torsion
[ 8592   72   71   70 ] final   66.56 input   60.00 | X-H torsion
[ 4356  100   99   97 ] final   13.31 input   60.00 | X-H torsion
[ 8510  202  201  200 ] final   12.70 input   60.00 | X-H torsion
[ 5330 1065 1064 1063 ] final  -95.95 input   60.00 | X-H torsion
[ 6640 2347 2346 2344 ] final -176.01 input   60.00 | X-H torsion
[ 4452  380  379  378 ] final -160.81 input   60.00 | X-H torsion
[ 4500  391  390  389 ] final    5.32 input   60.00 | X-H torsion

> <Gold.Protein.ActiveResidues>
 THR8    THR9    PRO10   ILE11   TYR12   TYR13   VAL14   ASN15   ALA16   HIS19  
 HIS22   SER25   VAL29   MET46   THR47   GLY48   THR49   ASP50   GLU51   HIS52  
 GLY53   GLN54   LYS55   VAL56   ALA57   GLU58   THR71   PHE78   ILE93   THR95  
 THR96   HIS100  GLU101  VAL104  TRP108  TYR126  VAL128  SER129  ASP130  GLU131 
 SER132  LEU210  SER211  ILE212  SER213  ARG214  LYS215  ARG216  SER218  VAL219 
 MET220  ASN221  TRP222  SER223  ILE224  PRO225  VAL226  HIS232  CYS233  ILE234 
 TYR235  VAL236  TRP237  LEU238  ASP239  ALA240  LEU241  PHE242  ASN243  TYR244 
 TYR245  THR246  HIS275  VAL276  VAL277  GLY278  LYS279  ASP280  ILE281  LEU282 
 LYS283  PHE284  HIS285  ALA286  ILE287  TYR288  TRP289  PRO290  PHE292  LEU304 
 TRP309 

> <Gold.Protein.RotatedAtoms>
  -33.3095   -7.7713   -5.2652 H   0  0  0  0  0  0  0  0  0  0  0  0  # atno 4356 bound_to 100 
  -30.2963   -8.2339   -9.0460 H   0  0  0  0  0  0  0  0  0  0  0  0  # atno 4452 bound_to 380 
  -44.7190  -11.3564  -16.5582 H   0  0  0  0  0  0  0  0  0  0  0  0  # atno 4464 bound_to 112 
  -34.4213  -11.3422  -15.9227 H   0  0  0  0  0  0  0  0  0  0  0  0  # atno 4500 bound_to 391 
  -31.5638  -16.4688   -3.8857 H   0  0  0  0  0  0  0  0  0  0  0  0  # atno 4818 bound_to 65  
  -47.8646  -11.5775  -13.2667 H   0  0  0  0  0  0  0  0  0  0  0  0  # atno 4839 bound_to 441 
  -49.4053  -10.9905  -13.0962 H   0  0  0  0  0  0  0  0  0  0  0  0  # atno 4840 bound_to 441 
  -48.7059  -11.0589  -14.5973 H   0  0  0  0  0  0  0  0  0  0  0  0  # atno 4841 bound_to 441 
  -38.4904  -17.4669  -15.7942 H   0  0  0  0  0  0  0  0  0  0  0  0  # atno 4985 bound_to 758 
  -54.2252  -17.5894  -13.6949 H   0  0  0  0  0  0  0  0  0  0  0  0  # atno 5271 bound_to 1023
  -53.9762  -16.0243   -7.1652 H   0  0  0  0  0  0  0  0  0  0  0  0  # atno 5330 bound_to 1065
  -55.1407  -16.6553  -18.2011 H   0  0  0  0  0  0  0  0  0  0  0  0  # atno 6036 bound_to 1776
  -44.9441  -17.6400  -18.3843 H   0  0  0  0  0  0  0  0  0  0  0  0  # atno 6078 bound_to 1819
  -48.9363  -15.0403  -11.7412 H   0  0  0  0  0  0  0  0  0  0  0  0  # atno 6166 bound_to 1916
  -34.8143  -15.0595   -5.6126 H   0  0  0  0  0  0  0  0  0  0  0  0  # atno 6268 bound_to 1997
  -48.9618  -19.7123   -2.1903 H   0  0  0  0  0  0  0  0  0  0  0  0  # atno 6640 bound_to 2347
  -34.9822   -6.0551   -1.5104 H   0  0  0  0  0  0  0  0  0  0  0  0  # atno 8510 bound_to 202 
  -31.7923   -9.1962   -3.4457 H   0  0  0  0  0  0  0  0  0  0  0  0  # atno 8592 bound_to 72  
  -45.8718  -10.2551  -16.2326 LP  0  0  0  0  0  0  0  0  0  0  0  0  # atno 8618 bound_to 112 
  -45.8220  -11.6594  -15.4008 LP  0  0  0  0  0  0  0  0  0  0  0  0  # atno 8619 bound_to 112 
  -37.1640  -18.2337  -16.3426 LP  0  0  0  0  0  0  0  0  0  0  0  0  # atno 8637 bound_to 758 
  -38.1640  -17.4768  -17.3884 LP  0  0  0  0  0  0  0  0  0  0  0  0  # atno 8638 bound_to 758 
  -54.6736  -16.0952  -14.1577 LP  0  0  0  0  0  0  0  0  0  0  0  0  # atno 8642 bound_to 1023
  -54.5725  -17.2978  -15.2578 LP  0  0  0  0  0  0  0  0  0  0  0  0  # atno 8643 bound_to 1023
  -53.5558  -16.3037  -18.3135 LP  0  0  0  0  0  0  0  0  0  0  0  0  # atno 8662 bound_to 1776
  -54.0542  -17.5528  -17.3872 LP  0  0  0  0  0  0  0  0  0  0  0  0  # atno 8663 bound_to 1776
  -46.4499  -18.0019  -18.8841 LP  0  0  0  0  0  0  0  0  0  0  0  0  # atno 8672 bound_to 1819
  -45.5018  -17.0216  -19.7824 LP  0  0  0  0  0  0  0  0  0  0  0  0  # atno 8673 bound_to 1819
  -49.8661  -15.7230  -10.5935 LP  0  0  0  0  0  0  0  0  0  0  0  0  # atno 8684 bound_to 1916
  -50.4596  -15.4888  -12.0966 LP  0  0  0  0  0  0  0  0  0  0  0  0  # atno 8685 bound_to 1916
  -31.2948  -15.0588   -3.1191 LP  0  0  0  0  0  0  0  0  0  0  0  0  # atno 8712 bound_to 65  
  -30.4149  -16.3802   -2.7367 LP  0  0  0  0  0  0  0  0  0  0  0  0  # atno 8713 bound_to 65  
  -34.5415  -15.4161   -4.0485 LP  0  0  0  0  0  0  0  0  0  0  0  0  # atno 8724 bound_to 1997
  -35.8621  -16.0074   -4.8055 LP  0  0  0  0  0  0  0  0  0  0  0  0  # atno 8725 bound_to 1997
  -32.9326   -9.5699   -4.5449 LP  0  0  0  0  0  0  0  0  0  0  0  0  # atno 8747 bound_to 72  
  -31.7980   -8.4474   -4.8904 LP  0  0  0  0  0  0  0  0  0  0  0  0  # atno 8748 bound_to 72  
  -32.4350   -6.6276   -6.0236 LP  0  0  0  0  0  0  0  0  0  0  0  0  # atno 8749 bound_to 100 
  -32.1501   -8.2079   -6.3203 LP  0  0  0  0  0  0  0  0  0  0  0  0  # atno 8750 bound_to 100 
  -35.2677   -7.6548   -1.5968 LP  0  0  0  0  0  0  0  0  0  0  0  0  # atno 8754 bound_to 202 
  -35.6289   -6.6885   -2.8626 LP  0  0  0  0  0  0  0  0  0  0  0  0  # atno 8755 bound_to 202 
  -54.7093  -14.5726   -7.2209 LP  0  0  0  0  0  0  0  0  0  0  0  0  # atno 8775 bound_to 1065
  -54.0725  -15.2215   -8.5774 LP  0  0  0  0  0  0  0  0  0  0  0  0  # atno 8776 bound_to 1065
  -49.1772  -20.8882   -1.0862 LP  0  0  0  0  0  0  0  0  0  0  0  0  # atno 8779 bound_to 2347
  -49.5564  -21.1550   -2.6520 LP  0  0  0  0  0  0  0  0  0  0  0  0  # atno 8780 bound_to 2347
  -30.8773   -9.2587   -7.9234 LP  0  0  0  0  0  0  0  0  0  0  0  0  # atno 8787 bound_to 380 
  -31.1309   -9.5517   -9.5097 LP  0  0  0  0  0  0  0  0  0  0  0  0  # atno 8788 bound_to 380 

$$$$
