unknown|11k_best|sdf|8312|dock1
  -GOLD-   3 721 1243D 1   1.00000     0.00000

 32 34  0  0  0  0  0  0  0  0  1 V2000
  -40.5203  -11.3569  -10.1177 C   0  0  0  0  0  0  0  0  0  0  0  0
  -41.8014  -11.8876   -9.5447 C   0  0  0  0  0  0  0  0  0  0  0  0
  -43.0128  -11.0849   -9.9460 C   0  0  0  0  0  0  0  0  0  0  0  0
  -41.7346  -12.1570   -8.0674 C   0  0  0  0  0  0  0  0  0  0  0  0
  -42.2024  -13.5306   -7.7161 C   0  0  0  0  0  0  0  0  0  0  0  0
  -41.5468  -14.4979   -8.2083 O   0  0  0  0  0  0  0  0  0  0  0  0
  -42.6156  -13.7041   -6.3550 N   0  0  0  0  0  0  0  0  0  0  0  0
  -41.6186  -13.8468   -5.2979 C   0  0  0  0  0  0  0  0  0  0  0  0
  -40.4741  -14.6237   -5.8269 C   0  0  0  0  0  0  0  0  0  0  0  0
  -40.7120  -15.8975   -6.3273 C   0  0  0  0  0  0  0  0  0  0  0  0
  -39.6506  -16.6543   -6.7954 C   0  0  0  0  0  0  0  0  0  0  0  0
  -38.6516  -15.9456   -7.4516 C   0  0  0  0  0  0  0  0  0  0  0  0
  -37.7132  -16.6882   -8.0852 F   0  0  0  0  0  0  0  0  0  0  0  0
  -38.3896  -14.6813   -6.9564 C   0  0  0  0  0  0  0  0  0  0  0  0
  -39.3626  -13.9377   -6.3001 C   0  0  0  0  0  0  0  0  0  0  0  0
  -43.9629  -14.1617   -6.1852 C   0  0  0  0  0  0  0  0  0  0  0  0
  -44.4577  -15.2714   -6.8281 C   0  0  0  0  0  0  0  0  0  0  0  0
  -45.8138  -15.3260   -7.1273 C   0  0  0  0  0  0  0  0  0  0  0  0
  -46.6479  -14.2702   -6.7795 C   0  0  0  0  0  0  0  0  0  0  0  0
  -48.1309  -14.3521   -6.9528 C   0  0  0  0  0  0  0  0  0  0  0  0
  -48.3554  -14.8251   -8.3548 C   0  0  0  0  0  0  0  0  0  0  0  0
  -47.5147  -14.5400   -9.2611 O   0  0  0  0  0  0  0  0  0  0  0  0
  -49.4026  -15.7117   -8.7093 N   0  0  0  0  0  0  0  0  0  0  0  0
  -50.4500  -15.9757   -7.7342 C   0  0  0  0  0  0  0  0  0  0  0  0
  -51.1360  -17.2718   -8.0015 C   0  0  0  0  0  0  0  0  0  0  0  0
  -50.5271  -18.4965   -7.7550 C   0  0  0  0  0  0  0  0  0  0  0  0
  -51.2386  -19.6647   -7.6507 C   0  0  0  0  0  0  0  0  0  0  0  0
  -52.6218  -19.5603   -7.7216 C   0  0  0  0  0  0  0  0  0  0  0  0
  -53.2233  -18.3376   -7.9000 C   0  0  0  0  0  0  0  0  0  0  0  0
  -52.4435  -17.3315   -8.3540 N   0  0  0  0  0  0  0  0  0  0  0  0
  -46.2129  -13.5042   -5.7045 C   0  0  0  0  0  0  0  0  0  0  0  0
  -44.8542  -13.3882   -5.4605 C   0  0  0  0  0  0  0  0  0  0  0  0
  1  2  1  0  0  0  0
  2  3  1  0  0  0  0
  2  4  1  0  0  0  0
  4  5  1  0  0  0  0
  5  6  2  0  0  0  0
  5  7  1  0  0  0  0
  7  8  1  0  0  0  0
  8  9  1  0  0  0  0
  9 10  2  0  0  0  0
 10 11  1  0  0  0  0
 11 12  2  0  0  0  0
 12 13  1  0  0  0  0
 12 14  1  0  0  0  0
 14 15  2  0  0  0  0
  7 16  1  0  0  0  0
 16 17  2  0  0  0  0
 17 18  1  0  0  0  0
 18 19  2  0  0  0  0
 19 20  1  0  0  0  0
 20 21  1  0  0  0  0
 21 22  2  0  0  0  0
 21 23  1  0  0  0  0
 23 24  1  0  0  0  0
 24 25  1  0  0  0  0
 25 26  2  0  0  0  0
 26 27  1  0  0  0  0
 27 28  2  0  0  0  0
 28 29  1  0  0  0  0
 29 30  2  0  0  0  0
 19 31  1  0  0  0  0
 31 32  2  0  0  0  0
 15  9  1  0  0  0  0
 32 16  1  0  0  0  0
 30 25  1  0  0  0  0
M  END
>  <zinc_id>  (312) 
ZINC000034675962

>  <smiles>  (312) 
CC(C)CC(=O)N(Cc1ccc(F)cc1)c1ccc(CC(=O)NCc2ccccn2)cc1

>  <source_line>  (312) 
312

>  <source_data>  (312) 
ZINC000034675962

>  <source_name>  (312) 


>  <source_label>  (312) 
ZINC000034675962

>  <found_by>  (312) 
ZINC

> <Gold.Version>
5.8.1

> <Gold.Id.Protein>
ID|ID_protein|mol2

> <Gold.Goldscore.Fitness>
60.1500

> <Gold.Goldscore.Internal.Vdw>
1.2638

> <Gold.Goldscore.Internal.Torsion>
-25.2519

> <Gold.Goldscore.External.Vdw>
42.9321

> <Gold.Goldscore.Internal.HBond>
0.0000

> <Gold.Goldscore.External.HBond>
7.1677

> <Gold.Goldscore.Internal.Correction>
-17.9386

> <Gold.Goldscore.Hbonds>
donor molecule, donor type, donor heavy atom, donor atom, acceptor molecule, acceptor atom, score
      P1  H  1916  6166       L1    23  1.00
      P1  H  1065  5330       L1    30  0.58

> <Gold.Goldscore.Internal.Vdw.Weighted>
1.2638

> <Gold.Goldscore.Internal.Torsion.Weighted>
-25.2519

> <Gold.Goldscore.External.Vdw.Weighted>
59.0317

> <Gold.Goldscore.Internal.HBond.Weighted>
0.0000

> <Gold.Goldscore.External.HBond.Weighted>
7.1677

> <Gold.Goldscore.Internal.Correction.Weighted>
-17.9386

> <Gold.Protein.RotatedTorsions>
[ 4464  112  111  109 ] final  132.78 input   60.00 | X-H torsion
[ 4839  441  440  439 ] final   10.80 input   60.00 | X-H torsion
[ 4985  758  757  756 ] final  100.17 input   60.00 | X-H torsion
[ 5271 1023 1022 1020 ] final -159.32 input   60.00 | X-H torsion
[ 6036 1776 1775 1774 ] final -117.62 input   60.00 | X-H torsion
[ 6078 1819 1818 1817 ] final   38.72 input   60.00 | X-H torsion
[ 6166 1916 1915 1913 ] final -174.16 input   60.00 | X-H torsion
[ 4818   65   64   63 ] final  -97.22 input   60.00 | X-H torsion
[ 6268 1997 1996 1994 ] final   58.78 input   60.00 | X-H torsion
[ 8592   72   71   70 ] final  -80.88 input   60.00 | X-H torsion
[ 4356  100   99   97 ] final  103.46 input   60.00 | X-H torsion
[ 8510  202  201  200 ] final -103.47 input   60.00 | X-H torsion
[ 5330 1065 1064 1063 ] final  -56.31 input   60.00 | X-H torsion
[ 6640 2347 2346 2344 ] final   65.15 input   60.00 | X-H torsion
[ 4452  380  379  378 ] final   -3.73 input   60.00 | X-H torsion
[ 4500  391  390  389 ] final   31.17 input   60.00 | X-H torsion

> <Gold.Protein.ActiveResidues>
 THR8    THR9    PRO10   ILE11   TYR12   TYR13   VAL14   ASN15   ALA16   HIS19  
 HIS22   SER25   VAL29   MET46   THR47   GLY48   THR49   ASP50   GLU51   HIS52  
 GLY53   GLN54   LYS55   VAL56   ALA57   GLU58   THR71   PHE78   ILE93   THR95  
 THR96   HIS100  GLU101  VAL104  TRP108  TYR126  VAL128  SER129  ASP130  GLU131 
 SER132  LEU210  SER211  ILE212  SER213  ARG214  LYS215  ARG216  SER218  VAL219 
 MET220  ASN221  TRP222  SER223  ILE224  PRO225  VAL226  HIS232  CYS233  ILE234 
 TYR235  VAL236  TRP237  LEU238  ASP239  ALA240  LEU241  PHE242  ASN243  TYR244 
 TYR245  THR246  HIS275  VAL276  VAL277  GLY278  LYS279  ASP280  ILE281  LEU282 
 LYS283  PHE284  HIS285  ALA286  ILE287  TYR288  TRP289  PRO290  PHE292  LEU304 
 TRP309 

> <Gold.Protein.RotatedAtoms>
  -32.4691   -8.4415   -6.0411 H   0  0  0  0  0  0  0  0  0  0  0  0  # atno 4356 bound_to 100 
  -31.2547   -9.7975   -8.9795 H   0  0  0  0  0  0  0  0  0  0  0  0  # atno 4452 bound_to 380 
  -46.2177  -10.8147  -15.5753 H   0  0  0  0  0  0  0  0  0  0  0  0  # atno 4464 bound_to 112 
  -34.8052  -11.3655  -16.0882 H   0  0  0  0  0  0  0  0  0  0  0  0  # atno 4500 bound_to 391 
  -30.5536  -16.6891   -2.9846 H   0  0  0  0  0  0  0  0  0  0  0  0  # atno 4818 bound_to 65  
  -49.3888  -10.8495  -14.1569 H   0  0  0  0  0  0  0  0  0  0  0  0  # atno 4839 bound_to 441 
  -47.8516  -11.4668  -14.0984 H   0  0  0  0  0  0  0  0  0  0  0  0  # atno 4840 bound_to 441 
  -48.7355  -11.3105  -12.7050 H   0  0  0  0  0  0  0  0  0  0  0  0  # atno 4841 bound_to 441 
  -37.6750  -17.9962  -15.6509 H   0  0  0  0  0  0  0  0  0  0  0  0  # atno 4985 bound_to 758 
  -54.7617  -16.2093  -14.7981 H   0  0  0  0  0  0  0  0  0  0  0  0  # atno 5271 bound_to 1023
  -53.8070  -16.0894   -7.7736 H   0  0  0  0  0  0  0  0  0  0  0  0  # atno 5330 bound_to 1065
  -53.4677  -17.1992  -17.6076 H   0  0  0  0  0  0  0  0  0  0  0  0  # atno 6036 bound_to 1776
  -45.5333  -17.0351  -19.7882 H   0  0  0  0  0  0  0  0  0  0  0  0  # atno 6078 bound_to 1819
  -49.5149  -15.5979  -10.5904 H   0  0  0  0  0  0  0  0  0  0  0  0  # atno 6166 bound_to 1916
  -34.8386  -15.0705   -5.6261 H   0  0  0  0  0  0  0  0  0  0  0  0  # atno 6268 bound_to 1997
  -49.1686  -20.8700   -1.0877 H   0  0  0  0  0  0  0  0  0  0  0  0  # atno 6640 bound_to 2347
  -35.2410   -7.6227   -1.5493 H   0  0  0  0  0  0  0  0  0  0  0  0  # atno 8510 bound_to 202 
  -32.8429   -9.3147   -4.8992 H   0  0  0  0  0  0  0  0  0  0  0  0  # atno 8592 bound_to 72  
  -45.0749  -11.9294  -15.8907 LP  0  0  0  0  0  0  0  0  0  0  0  0  # atno 8618 bound_to 112 
  -45.1095  -10.5306  -16.7325 LP  0  0  0  0  0  0  0  0  0  0  0  0  # atno 8619 bound_to 112 
  -37.4211  -17.9590  -17.2579 LP  0  0  0  0  0  0  0  0  0  0  0  0  # atno 8637 bound_to 758 
  -38.7281  -17.2185  -16.6175 LP  0  0  0  0  0  0  0  0  0  0  0  0  # atno 8638 bound_to 758 
  -54.3811  -17.7901  -14.8643 LP  0  0  0  0  0  0  0  0  0  0  0  0  # atno 8642 bound_to 1023
  -54.3247  -16.9927  -13.4403 LP  0  0  0  0  0  0  0  0  0  0  0  0  # atno 8643 bound_to 1023
  -55.0884  -17.2166  -17.7541 LP  0  0  0  0  0  0  0  0  0  0  0  0  # atno 8662 bound_to 1776
  -54.2062  -16.0922  -18.5442 LP  0  0  0  0  0  0  0  0  0  0  0  0  # atno 8663 bound_to 1776
  -44.9207  -17.6182  -18.3979 LP  0  0  0  0  0  0  0  0  0  0  0  0  # atno 8672 bound_to 1819
  -46.4376  -18.0145  -18.8548 LP  0  0  0  0  0  0  0  0  0  0  0  0  # atno 8673 bound_to 1819
  -50.6138  -15.6374  -11.7900 LP  0  0  0  0  0  0  0  0  0  0  0  0  # atno 8684 bound_to 1916
  -49.1292  -15.0128  -12.0591 LP  0  0  0  0  0  0  0  0  0  0  0  0  # atno 8685 bound_to 1916
  -31.7424  -16.0906   -3.9208 LP  0  0  0  0  0  0  0  0  0  0  0  0  # atno 8712 bound_to 65  
  -30.9846  -15.1264   -2.8425 LP  0  0  0  0  0  0  0  0  0  0  0  0  # atno 8713 bound_to 65  
  -34.5224  -15.3985   -4.0639 LP  0  0  0  0  0  0  0  0  0  0  0  0  # atno 8724 bound_to 1997
  -35.8567  -16.0138   -4.7765 LP  0  0  0  0  0  0  0  0  0  0  0  0  # atno 8725 bound_to 1997
  -31.5366   -8.4180   -4.5287 LP  0  0  0  0  0  0  0  0  0  0  0  0  # atno 8747 bound_to 72  
  -32.1360   -9.4801   -3.4428 LP  0  0  0  0  0  0  0  0  0  0  0  0  # atno 8748 bound_to 72  
  -33.3043   -7.2874   -5.2547 LP  0  0  0  0  0  0  0  0  0  0  0  0  # atno 8749 bound_to 100 
  -32.1271   -6.8731   -6.3078 LP  0  0  0  0  0  0  0  0  0  0  0  0  # atno 8750 bound_to 100 
  -35.6392   -6.7506   -2.8642 LP  0  0  0  0  0  0  0  0  0  0  0  0  # atno 8754 bound_to 202 
  -34.9969   -6.0139   -1.5560 LP  0  0  0  0  0  0  0  0  0  0  0  0  # atno 8755 bound_to 202 
  -54.5671  -15.0311   -6.7987 LP  0  0  0  0  0  0  0  0  0  0  0  0  # atno 8775 bound_to 1065
  -54.3851  -14.6974   -8.3869 LP  0  0  0  0  0  0  0  0  0  0  0  0  # atno 8776 bound_to 1065
  -49.5588  -21.1686   -2.6391 LP  0  0  0  0  0  0  0  0  0  0  0  0  # atno 8779 bound_to 2347
  -48.9665  -19.7087   -2.2096 LP  0  0  0  0  0  0  0  0  0  0  0  0  # atno 8780 bound_to 2347
  -30.4789   -8.4879   -9.5550 LP  0  0  0  0  0  0  0  0  0  0  0  0  # atno 8787 bound_to 380 
  -30.5642   -8.7479   -7.9451 LP  0  0  0  0  0  0  0  0  0  0  0  0  # atno 8788 bound_to 380 

$$$$
