unknown|11k_best|sdf|8327|dock3
  -GOLD-   3 721 1443D 1   1.00000     0.00000

 25 28  0  0  0  0  0  0  0  0  1 V2000
  -46.2954  -14.2598   -5.9120 C   0  0  0  0  0  0  0  0  0  0  0  0
  -46.3698  -14.2897   -7.4051 C   0  0  0  0  0  0  0  0  0  0  0  0
  -45.1406  -14.1599   -8.5978 S   0  0  0  0  0  0  0  0  0  0  0  0
  -46.1390  -13.9813   -9.9847 C   0  0  0  0  0  0  0  0  0  0  0  0
  -45.9702  -13.8408  -11.3237 N   0  0  0  0  0  0  0  0  0  0  0  0
  -47.0166  -13.5213  -12.1249 C   0  0  0  0  0  0  0  0  0  0  0  0
  -46.6831  -13.0655  -13.5107 C   0  0  0  0  0  0  0  0  0  0  0  0
  -45.1747  -13.9714  -13.9873 S   0  0  0  0  0  0  0  0  0  0  0  0
  -45.6173  -15.4818  -14.8271 C   0  0  0  0  0  0  0  0  0  0  0  0
  -46.8035  -15.8391  -15.3627 N   0  0  0  0  0  0  0  0  0  0  0  0
  -46.5617  -16.6535  -16.3813 N   0  0  0  0  0  0  0  0  0  0  0  0
  -45.3282  -17.1536  -16.1618 C   0  0  0  0  0  0  0  0  0  0  0  0
  -44.5867  -17.9922  -16.9255 N   0  0  0  0  0  0  0  0  0  0  0  0
  -43.4171  -18.4086  -16.4014 C   0  0  0  0  0  0  0  0  0  0  0  0
  -42.8220  -19.6369  -17.0143 C   0  0  0  0  0  0  0  0  0  0  0  0
  -42.8617  -17.8097  -15.2809 C   0  0  0  0  0  0  0  0  0  0  0  0
  -43.5000  -16.6864  -14.7729 C   0  0  0  0  0  0  0  0  0  0  0  0
  -42.7357  -15.6533  -14.0175 C   0  0  0  0  0  0  0  0  0  0  0  0
  -44.7750  -16.4877  -15.1198 N   0  0  0  0  0  0  0  0  0  0  0  0
  -48.0657  -12.9445  -11.4892 N   0  0  0  0  0  0  0  0  0  0  0  0
  -48.3682  -13.2410  -10.2153 C   0  0  0  0  0  0  0  0  0  0  0  0
  -49.5507  -13.0587   -9.8088 O   0  0  0  0  0  0  0  0  0  0  0  0
  -47.3607  -13.7098   -9.3790 C   0  0  0  0  0  0  0  0  0  0  0  0
  -47.4950  -14.4434   -8.2078 C   0  0  0  0  0  0  0  0  0  0  0  0
  -48.7869  -14.9244   -7.6181 C   0  0  0  0  0  0  0  0  0  0  0  0
  1  2  1  0  0  0  0
  2  3  1  0  0  0  0
  3  4  1  0  0  0  0
  4  5  1  0  0  0  0
  5  6  2  0  0  0  0
  6  7  1  0  0  0  0
  7  8  1  0  0  0  0
  8  9  1  0  0  0  0
  9 10  2  0  0  0  0
 10 11  1  0  0  0  0
 11 12  2  0  0  0  0
 12 13  1  0  0  0  0
 13 14  2  0  0  0  0
 14 15  1  0  0  0  0
 14 16  1  0  0  0  0
 16 17  2  0  0  0  0
 17 18  1  0  0  0  0
 17 19  1  0  0  0  0
  6 20  1  0  0  0  0
 20 21  1  0  0  0  0
 21 22  2  0  0  0  0
 21 23  1  0  0  0  0
 23 24  1  0  0  0  0
 24 25  1  0  0  0  0
 24  2  2  0  0  0  0
 23  4  2  0  0  0  0
 19  9  1  0  0  0  0
 19 12  1  0  0  0  0
M  END
>  <zinc_id>  (327) 
ZINC000005266910

>  <smiles>  (327) 
Cc1cc(C)n2c(SCc3nc4sc(C)c(C)c4c(=O)[nH]3)nnc2n1

>  <source_line>  (327) 
327

>  <source_data>  (327) 
ZINC000005266910

>  <source_name>  (327) 


>  <source_label>  (327) 
ZINC000005266910

>  <found_by>  (327) 
ZINC

> <Gold.Version>
5.8.1

> <Gold.Id.Protein>
ID|ID_protein|mol2

> <Gold.Goldscore.Fitness>
64.3320

> <Gold.Goldscore.Internal.Vdw>
0.3252

> <Gold.Goldscore.Internal.Torsion>
-0.5181

> <Gold.Goldscore.External.Vdw>
42.9191

> <Gold.Goldscore.Internal.HBond>
0.0000

> <Gold.Goldscore.External.HBond>
9.1967

> <Gold.Goldscore.Internal.Correction>
3.6856

> <Gold.Goldscore.Hbonds>
donor molecule, donor type, donor heavy atom, donor atom, acceptor molecule, acceptor atom, score
      P1  H   441  4839       L1    20  0.92

> <Gold.Goldscore.Internal.Vdw.Weighted>
0.3252

> <Gold.Goldscore.Internal.Torsion.Weighted>
-0.5181

> <Gold.Goldscore.External.Vdw.Weighted>
59.0138

> <Gold.Goldscore.Internal.HBond.Weighted>
0.0000

> <Gold.Goldscore.External.HBond.Weighted>
9.1967

> <Gold.Goldscore.Internal.Correction.Weighted>
3.6856

> <Gold.Protein.RotatedTorsions>
[ 4464  112  111  109 ] final -117.17 input   60.00 | X-H torsion
[ 4839  441  440  439 ] final -140.93 input   60.00 | X-H torsion
[ 4985  758  757  756 ] final -130.69 input   60.00 | X-H torsion
[ 5271 1023 1022 1020 ] final  147.46 input   60.00 | X-H torsion
[ 6036 1776 1775 1774 ] final  -95.20 input   60.00 | X-H torsion
[ 6078 1819 1818 1817 ] final   33.82 input   60.00 | X-H torsion
[ 6166 1916 1915 1913 ] final  134.20 input   60.00 | X-H torsion
[ 4818   65   64   63 ] final  161.47 input   60.00 | X-H torsion
[ 6268 1997 1996 1994 ] final -153.40 input   60.00 | X-H torsion
[ 8592   72   71   70 ] final  128.06 input   60.00 | X-H torsion
[ 4356  100   99   97 ] final  -64.72 input   60.00 | X-H torsion
[ 8510  202  201  200 ] final   51.15 input   60.00 | X-H torsion
[ 5330 1065 1064 1063 ] final  156.88 input   60.00 | X-H torsion
[ 6640 2347 2346 2344 ] final  -48.92 input   60.00 | X-H torsion
[ 4452  380  379  378 ] final  -74.86 input   60.00 | X-H torsion
[ 4500  391  390  389 ] final  -13.83 input   60.00 | X-H torsion

> <Gold.Protein.ActiveResidues>
 THR8    THR9    PRO10   ILE11   TYR12   TYR13   VAL14   ASN15   ALA16   HIS19  
 HIS22   SER25   VAL29   MET46   THR47   GLY48   THR49   ASP50   GLU51   HIS52  
 GLY53   GLN54   LYS55   VAL56   ALA57   GLU58   THR71   PHE78   ILE93   THR95  
 THR96   HIS100  GLU101  VAL104  TRP108  TYR126  VAL128  SER129  ASP130  GLU131 
 SER132  LEU210  SER211  ILE212  SER213  ARG214  LYS215  ARG216  SER218  VAL219 
 MET220  ASN221  TRP222  SER223  ILE224  PRO225  VAL226  HIS232  CYS233  ILE234 
 TYR235  VAL236  TRP237  LEU238  ASP239  ALA240  LEU241  PHE242  ASN243  TYR244 
 TYR245  THR246  HIS275  VAL276  VAL277  GLY278  LYS279  ASP280  ILE281  LEU282 
 LYS283  PHE284  HIS285  ALA286  ILE287  TYR288  TRP289  PRO290  PHE292  LEU304 
 TRP309 

> <Gold.Protein.RotatedAtoms>
  -32.9340   -6.6985   -5.5777 H   0  0  0  0  0  0  0  0  0  0  0  0  # atno 4356 bound_to 100 
  -30.8775   -9.1261   -9.7497 H   0  0  0  0  0  0  0  0  0  0  0  0  # atno 4452 bound_to 380 
  -45.2298  -10.4314  -16.6848 H   0  0  0  0  0  0  0  0  0  0  0  0  # atno 4464 bound_to 112 
  -34.1418  -11.2196  -15.8600 H   0  0  0  0  0  0  0  0  0  0  0  0  # atno 4500 bound_to 391 
  -31.6227  -16.3711   -3.9080 H   0  0  0  0  0  0  0  0  0  0  0  0  # atno 4818 bound_to 65  
  -48.2572  -11.4828  -12.8290 H   0  0  0  0  0  0  0  0  0  0  0  0  # atno 4839 bound_to 441 
  -49.5480  -10.8557  -13.6585 H   0  0  0  0  0  0  0  0  0  0  0  0  # atno 4840 bound_to 441 
  -48.1706  -11.2883  -14.4728 H   0  0  0  0  0  0  0  0  0  0  0  0  # atno 4841 bound_to 441 
  -38.6884  -17.2227  -16.7620 H   0  0  0  0  0  0  0  0  0  0  0  0  # atno 4985 bound_to 758 
  -54.6791  -16.8911  -15.2795 H   0  0  0  0  0  0  0  0  0  0  0  0  # atno 5271 bound_to 1023
  -54.6840  -14.6986   -7.0549 H   0  0  0  0  0  0  0  0  0  0  0  0  # atno 5330 bound_to 1065
  -53.3341  -16.9260  -17.8077 H   0  0  0  0  0  0  0  0  0  0  0  0  # atno 6036 bound_to 1776
  -45.4596  -17.0176  -19.7630 H   0  0  0  0  0  0  0  0  0  0  0  0  # atno 6078 bound_to 1819
  -50.2721  -15.8104  -10.8063 H   0  0  0  0  0  0  0  0  0  0  0  0  # atno 6166 bound_to 1916
  -35.6755  -16.0413   -4.3637 H   0  0  0  0  0  0  0  0  0  0  0  0  # atno 6268 bound_to 1997
  -49.5647  -21.2311   -2.5644 H   0  0  0  0  0  0  0  0  0  0  0  0  # atno 6640 bound_to 2347
  -35.1779   -5.8717   -2.0655 H   0  0  0  0  0  0  0  0  0  0  0  0  # atno 8510 bound_to 202 
  -31.4195   -8.5661   -4.0623 H   0  0  0  0  0  0  0  0  0  0  0  0  # atno 8592 bound_to 72  
  -46.2096  -10.9575  -15.4969 LP  0  0  0  0  0  0  0  0  0  0  0  0  # atno 8618 bound_to 112 
  -44.9696  -11.8886  -16.0089 LP  0  0  0  0  0  0  0  0  0  0  0  0  # atno 8619 bound_to 112 
  -37.7976  -17.9286  -15.5973 LP  0  0  0  0  0  0  0  0  0  0  0  0  # atno 8637 bound_to 758 
  -37.3310  -18.0277  -17.1591 LP  0  0  0  0  0  0  0  0  0  0  0  0  # atno 8638 bound_to 758 
  -54.2225  -17.8362  -14.0360 LP  0  0  0  0  0  0  0  0  0  0  0  0  # atno 8642 bound_to 1023
  -54.5665  -16.2600  -13.7838 LP  0  0  0  0  0  0  0  0  0  0  0  0  # atno 8643 bound_to 1023
  -54.8614  -17.4318  -17.5630 LP  0  0  0  0  0  0  0  0  0  0  0  0  # atno 8662 bound_to 1776
  -54.5678  -16.1520  -18.5338 LP  0  0  0  0  0  0  0  0  0  0  0  0  # atno 8663 bound_to 1776
  -44.9678  -17.6664  -18.3540 LP  0  0  0  0  0  0  0  0  0  0  0  0  # atno 8672 bound_to 1819
  -46.4648  -17.9839  -18.9241 LP  0  0  0  0  0  0  0  0  0  0  0  0  # atno 8673 bound_to 1819
  -50.1127  -15.2888  -12.3394 LP  0  0  0  0  0  0  0  0  0  0  0  0  # atno 8684 bound_to 1916
  -48.8677  -15.1474  -11.2923 LP  0  0  0  0  0  0  0  0  0  0  0  0  # atno 8685 bound_to 1916
  -31.2107  -15.0592   -3.0378 LP  0  0  0  0  0  0  0  0  0  0  0  0  # atno 8712 bound_to 65  
  -30.4397  -16.4782   -2.7957 LP  0  0  0  0  0  0  0  0  0  0  0  0  # atno 8713 bound_to 65  
  -35.2247  -15.2807   -5.7298 LP  0  0  0  0  0  0  0  0  0  0  0  0  # atno 8724 bound_to 1997
  -34.3116  -15.1540   -4.3819 LP  0  0  0  0  0  0  0  0  0  0  0  0  # atno 8725 bound_to 1997
  -32.5325   -9.6886   -3.6759 LP  0  0  0  0  0  0  0  0  0  0  0  0  # atno 8747 bound_to 72  
  -32.5736   -8.9634   -5.1384 LP  0  0  0  0  0  0  0  0  0  0  0  0  # atno 8748 bound_to 72  
  -31.9350   -7.5934   -6.4993 LP  0  0  0  0  0  0  0  0  0  0  0  0  # atno 8749 bound_to 100 
  -33.0282   -8.3224   -5.5298 LP  0  0  0  0  0  0  0  0  0  0  0  0  # atno 8750 bound_to 100 
  -35.0410   -7.2395   -1.1947 LP  0  0  0  0  0  0  0  0  0  0  0  0  # atno 8754 bound_to 202 
  -35.6586   -7.2885   -2.7056 LP  0  0  0  0  0  0  0  0  0  0  0  0  # atno 8755 bound_to 202 
  -54.1714  -15.0362   -8.5620 LP  0  0  0  0  0  0  0  0  0  0  0  0  # atno 8775 bound_to 1065
  -53.8976  -16.0929   -7.3474 LP  0  0  0  0  0  0  0  0  0  0  0  0  # atno 8776 bound_to 1065
  -48.9911  -19.7311   -2.3013 LP  0  0  0  0  0  0  0  0  0  0  0  0  # atno 8779 bound_to 2347
  -49.1353  -20.7826   -1.0602 LP  0  0  0  0  0  0  0  0  0  0  0  0  # atno 8780 bound_to 2347
  -30.2941   -8.2672   -8.4967 LP  0  0  0  0  0  0  0  0  0  0  0  0  # atno 8787 bound_to 380 
  -31.1288   -9.6448   -8.2278 LP  0  0  0  0  0  0  0  0  0  0  0  0  # atno 8788 bound_to 380 

$$$$
