unknown|11k_best|sdf|8262|dock9
  -GOLD-   3 721 0233D 1   1.00000     0.00000

 29 31  0  0  0  0  0  0  0  0  1 V2000
  -50.5576  -14.2937  -16.2189 C   0  0  0  0  0  0  0  0  0  0  0  0
  -49.2472  -14.7884  -15.9641 O   0  0  0  0  0  0  0  0  0  0  0  0
  -48.9159  -16.0197  -16.5043 C   0  0  0  0  0  0  0  0  0  0  0  0
  -49.9611  -16.8672  -16.8246 C   0  0  0  0  0  0  0  0  0  0  0  0
  -49.7047  -18.1579  -17.2534 C   0  0  0  0  0  0  0  0  0  0  0  0
  -48.4086  -18.6345  -17.1858 C   0  0  0  0  0  0  0  0  0  0  0  0
  -48.1011  -19.9985  -17.7081 C   0  0  0  0  0  0  0  0  0  0  0  0
  -47.3802  -17.7854  -16.8314 C   0  0  0  0  0  0  0  0  0  0  0  0
  -47.6433  -16.5225  -16.3284 C   0  0  0  0  0  0  0  0  0  0  0  0
  -46.5876  -15.7535  -15.7397 N   0  0  0  0  0  0  0  0  0  0  0  0
  -46.9482  -14.4535  -15.2428 C   0  0  0  0  0  0  0  0  0  0  0  0
  -46.7875  -14.3180  -13.7778 C   0  0  0  0  0  0  0  0  0  0  0  0
  -46.3770  -15.3238  -13.1236 O   0  0  0  0  0  0  0  0  0  0  0  0
  -46.8607  -13.1046  -13.0651 N   0  0  0  0  0  0  0  0  0  0  0  0
  -46.4929  -13.0166  -11.6806 C   0  0  0  0  0  0  0  0  0  0  0  0
  -46.4312  -14.1287  -10.9038 N   0  0  0  0  0  0  0  0  0  0  0  0
  -45.9793  -13.8651   -9.7058 N   0  0  0  0  0  0  0  0  0  0  0  0
  -46.6668  -12.8815   -9.0962 C   0  0  0  0  0  0  0  0  0  0  0  0
  -47.0806  -12.7565   -7.6964 C   0  0  0  0  0  0  0  0  0  0  0  0
  -47.3154  -11.5036   -7.1433 C   0  0  0  0  0  0  0  0  0  0  0  0
  -46.8283  -11.1424   -5.8966 C   0  0  0  0  0  0  0  0  0  0  0  0
  -46.2407  -12.1032   -5.0830 C   0  0  0  0  0  0  0  0  0  0  0  0
  -46.3756  -13.4139   -5.4801 C   0  0  0  0  0  0  0  0  0  0  0  0
  -46.6816  -13.7352   -6.7967 C   0  0  0  0  0  0  0  0  0  0  0  0
  -46.9723  -11.8927  -10.4673 S   0  0  0  0  0  0  0  0  0  0  0  0
  -45.0674  -16.5047  -15.4639 S   0  0  0  0  0  0  0  0  0  0  0  0
  -43.8709  -15.3190  -14.8690 C   0  0  0  0  0  0  0  0  0  0  0  0
  -45.2290  -17.5291  -14.3709 O   0  0  0  0  0  0  0  0  0  0  0  0
  -44.5489  -17.2279  -16.6657 O   0  0  0  0  0  0  0  0  0  0  0  0
  1  2  1  0  0  0  0
  2  3  1  0  0  0  0
  3  4  2  0  0  0  0
  4  5  1  0  0  0  0
  5  6  2  0  0  0  0
  6  7  1  0  0  0  0
  6  8  1  0  0  0  0
  8  9  2  0  0  0  0
  9 10  1  0  0  0  0
 10 11  1  0  0  0  0
 11 12  1  0  0  0  0
 12 13  2  0  0  0  0
 12 14  1  0  0  0  0
 14 15  1  0  0  0  0
 15 16  2  0  0  0  0
 16 17  1  0  0  0  0
 17 18  2  0  0  0  0
 18 19  1  0  0  0  0
 19 20  2  0  0  0  0
 20 21  1  0  0  0  0
 21 22  2  0  0  0  0
 22 23  1  0  0  0  0
 23 24  2  0  0  0  0
 18 25  1  0  0  0  0
 10 26  1  0  0  0  0
 26 27  1  0  0  0  0
 26 28  2  0  0  0  0
 26 29  2  0  0  0  0
  9  3  1  0  0  0  0
 25 15  1  0  0  0  0
 24 19  1  0  0  0  0
M  END
>  <zinc_id>  (262) 
ZINC000225490892

>  <smiles>  (262) 
COc1ccc(C)cc1N(CC(=O)Nc1nnc(-c2ccccc2)s1)S(C)(=O)=O

>  <source_line>  (262) 
262

>  <source_data>  (262) 
ZINC000225490892

>  <source_name>  (262) 


>  <source_label>  (262) 
ZINC000225490892

>  <found_by>  (262) 
ZINC

> <Gold.Version>
5.8.1

> <Gold.Id.Protein>
ID|ID_protein|mol2

> <Gold.Goldscore.Fitness>
71.2482

> <Gold.Goldscore.Internal.Vdw>
0.0863

> <Gold.Goldscore.Internal.Torsion>
-6.3886

> <Gold.Goldscore.External.Vdw>
43.4706

> <Gold.Goldscore.Internal.HBond>
0.0000

> <Gold.Goldscore.External.HBond>
13.6480

> <Gold.Goldscore.Internal.Correction>
-4.1305

> <Gold.Goldscore.Hbonds>
donor molecule, donor type, donor heavy atom, donor atom, acceptor molecule, acceptor atom, score
      P1  H   426  4822       L1     2  1.00
      P1  H   441  4841       L1    14  0.90
      P1  H  1819  6078       L1    29  0.97
      P1  H  1916  6166       L1    16  0.34

> <Gold.Goldscore.Internal.Vdw.Weighted>
0.0863

> <Gold.Goldscore.Internal.Torsion.Weighted>
-6.3886

> <Gold.Goldscore.External.Vdw.Weighted>
59.7720

> <Gold.Goldscore.Internal.HBond.Weighted>
0.0000

> <Gold.Goldscore.External.HBond.Weighted>
13.6480

> <Gold.Goldscore.Internal.Correction.Weighted>
-4.1305

> <Gold.Protein.RotatedTorsions>
[ 4464  112  111  109 ] final  101.16 input   60.00 | X-H torsion
[ 4839  441  440  439 ] final  -59.86 input   60.00 | X-H torsion
[ 4985  758  757  756 ] final  179.01 input   60.00 | X-H torsion
[ 5271 1023 1022 1020 ] final -147.72 input   60.00 | X-H torsion
[ 6036 1776 1775 1774 ] final -110.56 input   60.00 | X-H torsion
[ 6078 1819 1818 1817 ] final  -94.62 input   60.00 | X-H torsion
[ 6166 1916 1915 1913 ] final -102.85 input   60.00 | X-H torsion
[ 4818   65   64   63 ] final   45.73 input   60.00 | X-H torsion
[ 6268 1997 1996 1994 ] final   22.66 input   60.00 | X-H torsion
[ 8592   72   71   70 ] final  -39.12 input   60.00 | X-H torsion
[ 4356  100   99   97 ] final  -93.83 input   60.00 | X-H torsion
[ 8510  202  201  200 ] final   75.32 input   60.00 | X-H torsion
[ 5330 1065 1064 1063 ] final -137.33 input   60.00 | X-H torsion
[ 6640 2347 2346 2344 ] final  -54.46 input   60.00 | X-H torsion
[ 4452  380  379  378 ] final  -78.39 input   60.00 | X-H torsion
[ 4500  391  390  389 ] final  -52.11 input   60.00 | X-H torsion

> <Gold.Protein.ActiveResidues>
 THR8    THR9    PRO10   ILE11   TYR12   TYR13   VAL14   ASN15   ALA16   HIS19  
 HIS22   SER25   VAL29   MET46   THR47   GLY48   THR49   ASP50   GLU51   HIS52  
 GLY53   GLN54   LYS55   VAL56   ALA57   GLU58   THR71   PHE78   ILE93   THR95  
 THR96   HIS100  GLU101  VAL104  TRP108  TYR126  VAL128  SER129  ASP130  GLU131 
 SER132  LEU210  SER211  ILE212  SER213  ARG214  LYS215  ARG216  SER218  VAL219 
 MET220  ASN221  TRP222  SER223  ILE224  PRO225  VAL226  HIS232  CYS233  ILE234 
 TYR235  VAL236  TRP237  LEU238  ASP239  ALA240  LEU241  PHE242  ASN243  TYR244 
 TYR245  THR246  HIS275  VAL276  VAL277  GLY278  LYS279  ASP280  ILE281  LEU282 
 LYS283  PHE284  HIS285  ALA286  ILE287  TYR288  TRP289  PRO290  PHE292  LEU304 
 TRP309 

> <Gold.Protein.RotatedAtoms>
  -32.5913   -6.6010   -5.8849 H   0  0  0  0  0  0  0  0  0  0  0  0  # atno 4356 bound_to 100 
  -30.8478   -9.0773   -9.7574 H   0  0  0  0  0  0  0  0  0  0  0  0  # atno 4452 bound_to 380 
  -46.0961  -11.2761  -15.3948 H   0  0  0  0  0  0  0  0  0  0  0  0  # atno 4464 bound_to 112 
  -33.7268  -10.7703  -15.9133 H   0  0  0  0  0  0  0  0  0  0  0  0  # atno 4500 bound_to 391 
  -31.2586  -15.0630   -3.0889 H   0  0  0  0  0  0  0  0  0  0  0  0  # atno 4818 bound_to 65  
  -49.3819  -11.0047  -13.0611 H   0  0  0  0  0  0  0  0  0  0  0  0  # atno 4839 bound_to 441 
  -48.7472  -11.0432  -14.5917 H   0  0  0  0  0  0  0  0  0  0  0  0  # atno 4840 bound_to 441 
  -47.8468  -11.5789  -13.3074 H   0  0  0  0  0  0  0  0  0  0  0  0  # atno 4841 bound_to 441 
  -38.6238  -17.3601  -15.9808 H   0  0  0  0  0  0  0  0  0  0  0  0  # atno 4985 bound_to 758 
  -54.7497  -16.1334  -14.6251 H   0  0  0  0  0  0  0  0  0  0  0  0  # atno 5271 bound_to 1023
  -54.2868  -15.5913   -6.7730 H   0  0  0  0  0  0  0  0  0  0  0  0  # atno 5330 bound_to 1065
  -53.4115  -17.1172  -17.6660 H   0  0  0  0  0  0  0  0  0  0  0  0  # atno 6036 bound_to 1776
  -45.0634  -17.7481  -18.2959 H   0  0  0  0  0  0  0  0  0  0  0  0  # atno 6078 bound_to 1819
  -48.8695  -15.1363  -11.3399 H   0  0  0  0  0  0  0  0  0  0  0  0  # atno 6166 bound_to 1916
  -34.4324  -14.9441   -5.2312 H   0  0  0  0  0  0  0  0  0  0  0  0  # atno 6268 bound_to 1997
  -49.5552  -21.1698   -2.6304 H   0  0  0  0  0  0  0  0  0  0  0  0  # atno 6640 bound_to 2347
  -35.3328   -5.9644   -2.4135 H   0  0  0  0  0  0  0  0  0  0  0  0  # atno 8510 bound_to 202 
  -32.9015   -9.6588   -4.3303 H   0  0  0  0  0  0  0  0  0  0  0  0  # atno 8592 bound_to 72  
  -44.7960  -11.7192  -16.2675 LP  0  0  0  0  0  0  0  0  0  0  0  0  # atno 8618 bound_to 112 
  -45.5109  -10.2761  -16.5374 LP  0  0  0  0  0  0  0  0  0  0  0  0  # atno 8619 bound_to 112 
  -37.2436  -18.2136  -16.1014 LP  0  0  0  0  0  0  0  0  0  0  0  0  # atno 8637 bound_to 758 
  -37.9500  -17.6044  -17.4417 LP  0  0  0  0  0  0  0  0  0  0  0  0  # atno 8638 bound_to 758 
  -54.4340  -17.6822  -15.0122 LP  0  0  0  0  0  0  0  0  0  0  0  0  # atno 8642 bound_to 1023
  -54.2839  -17.1770  -13.4666 LP  0  0  0  0  0  0  0  0  0  0  0  0  # atno 8643 bound_to 1023
  -55.0292  -17.2923  -17.6890 LP  0  0  0  0  0  0  0  0  0  0  0  0  # atno 8662 bound_to 1776
  -54.3220  -16.0990  -18.5506 LP  0  0  0  0  0  0  0  0  0  0  0  0  # atno 8663 bound_to 1776
  -46.4974  -17.9237  -19.0448 LP  0  0  0  0  0  0  0  0  0  0  0  0  # atno 8672 bound_to 1819
  -45.3342  -16.9909  -19.7107 LP  0  0  0  0  0  0  0  0  0  0  0  0  # atno 8673 bound_to 1819
  -50.2388  -15.8063  -10.7706 LP  0  0  0  0  0  0  0  0  0  0  0  0  # atno 8684 bound_to 1916
  -50.1542  -15.3088  -12.3236 LP  0  0  0  0  0  0  0  0  0  0  0  0  # atno 8685 bound_to 1916
  -30.4236  -16.4204   -2.7595 LP  0  0  0  0  0  0  0  0  0  0  0  0  # atno 8712 bound_to 65  
  -31.5934  -16.4342   -3.8988 LP  0  0  0  0  0  0  0  0  0  0  0  0  # atno 8713 bound_to 65  
  -34.9747  -15.7393   -3.9191 LP  0  0  0  0  0  0  0  0  0  0  0  0  # atno 8724 bound_to 1997
  -35.8134  -15.8004   -5.3190 LP  0  0  0  0  0  0  0  0  0  0  0  0  # atno 8725 bound_to 1997
  -31.9727   -8.5203   -5.0298 LP  0  0  0  0  0  0  0  0  0  0  0  0  # atno 8747 bound_to 72  
  -31.6409   -9.0313   -3.5147 LP  0  0  0  0  0  0  0  0  0  0  0  0  # atno 8748 bound_to 72  
  -32.0494   -8.0438   -6.4072 LP  0  0  0  0  0  0  0  0  0  0  0  0  # atno 8749 bound_to 100 
  -33.2590   -7.9702   -5.3126 LP  0  0  0  0  0  0  0  0  0  0  0  0  # atno 8750 bound_to 100 
  -34.9498   -6.8642   -1.1129 LP  0  0  0  0  0  0  0  0  0  0  0  0  # atno 8754 bound_to 202 
  -35.5938   -7.5704   -2.4370 LP  0  0  0  0  0  0  0  0  0  0  0  0  # atno 8755 bound_to 202 
  -54.6332  -14.4397   -7.8694 LP  0  0  0  0  0  0  0  0  0  0  0  0  # atno 8775 bound_to 1065
  -53.8358  -15.7904   -8.3239 LP  0  0  0  0  0  0  0  0  0  0  0  0  # atno 8776 bound_to 1065
  -48.9680  -19.7099   -2.2157 LP  0  0  0  0  0  0  0  0  0  0  0  0  # atno 8779 bound_to 2347
  -49.1680  -20.8655   -1.0794 LP  0  0  0  0  0  0  0  0  0  0  0  0  # atno 8780 bound_to 2347
  -30.3039   -8.2870   -8.4430 LP  0  0  0  0  0  0  0  0  0  0  0  0  # atno 8787 bound_to 380 
  -31.1489   -9.6741   -8.2737 LP  0  0  0  0  0  0  0  0  0  0  0  0  # atno 8788 bound_to 380 

$$$$
