unknown|11k_best|sdf|8334|dock5
  -GOLD-   3 721 1523D 1   1.00000     0.00000

 31 35  0  0  0  0  0  0  0  0  1 V2000
  -53.2855  -15.6116  -15.7251 C   0  0  0  0  0  0  0  0  0  0  0  0
  -52.3121  -16.0583  -16.7703 C   0  0  0  0  0  0  0  0  0  0  0  0
  -52.3152  -17.3609  -17.2538 C   0  0  0  0  0  0  0  0  0  0  0  0
  -51.1259  -17.9818  -17.6097 C   0  0  0  0  0  0  0  0  0  0  0  0
  -49.9064  -17.3450  -17.4147 C   0  0  0  0  0  0  0  0  0  0  0  0
  -48.6972  -18.0882  -16.9443 C   0  0  0  0  0  0  0  0  0  0  0  0
  -47.6800  -17.0873  -16.6349 N   0  0  0  0  0  0  0  0  0  0  0  0
  -47.8628  -15.8218  -16.2582 N   0  0  0  0  0  0  0  0  0  0  0  0
  -46.7511  -15.3891  -15.6206 C   0  0  0  0  0  0  0  0  0  0  0  0
  -46.5149  -14.1617  -14.8402 C   0  0  0  0  0  0  0  0  0  0  0  0
  -47.2831  -14.0951  -13.6233 N   0  0  0  0  0  0  0  0  0  0  0  0
  -46.6491  -14.7322  -12.5004 C   0  0  0  0  0  0  0  0  0  0  0  0
  -46.1020  -13.7142  -11.5504 C   0  0  0  0  0  0  0  0  0  0  0  0
  -46.9053  -12.9817  -10.7417 N   0  0  0  0  0  0  0  0  0  0  0  0
  -46.2589  -11.8400  -10.4080 C   0  0  0  0  0  0  0  0  0  0  0  0
  -46.6099  -10.6932   -9.7061 C   0  0  0  0  0  0  0  0  0  0  0  0
  -46.2222   -9.4602  -10.2164 C   0  0  0  0  0  0  0  0  0  0  0  0
  -45.1580   -9.3899  -11.1038 C   0  0  0  0  0  0  0  0  0  0  0  0
  -44.4674  -10.5671  -11.3314 C   0  0  0  0  0  0  0  0  0  0  0  0
  -45.0938  -11.7965  -11.1631 C   0  0  0  0  0  0  0  0  0  0  0  0
  -44.9376  -13.0330  -11.6398 N   0  0  0  0  0  0  0  0  0  0  0  0
  -45.7640  -16.2698  -16.0076 C   0  0  0  0  0  0  0  0  0  0  0  0
  -44.3540  -16.1801  -15.6705 C   0  0  0  0  0  0  0  0  0  0  0  0
  -43.8982  -15.1301  -14.8977 C   0  0  0  0  0  0  0  0  0  0  0  0
  -42.7844  -15.2387  -14.0751 C   0  0  0  0  0  0  0  0  0  0  0  0
  -42.3059  -16.5146  -13.8036 C   0  0  0  0  0  0  0  0  0  0  0  0
  -42.4390  -17.4269  -14.8439 C   0  0  0  0  0  0  0  0  0  0  0  0
  -43.5951  -17.3436  -15.6106 C   0  0  0  0  0  0  0  0  0  0  0  0
  -46.3915  -17.3386  -16.5535 N   0  0  0  0  0  0  0  0  0  0  0  0
  -49.9663  -15.9575  -17.3687 C   0  0  0  0  0  0  0  0  0  0  0  0
  -51.1594  -15.3279  -17.0350 C   0  0  0  0  0  0  0  0  0  0  0  0
  1  2  1  0  0  0  0
  2  3  2  0  0  0  0
  3  4  1  0  0  0  0
  4  5  2  0  0  0  0
  5  6  1  0  0  0  0
  6  7  1  0  0  0  0
  7  8  1  0  0  0  0
  8  9  2  0  0  0  0
  9 10  1  0  0  0  0
 10 11  1  0  0  0  0
 11 12  1  0  0  0  0
 12 13  1  0  0  0  0
 13 14  2  0  0  0  0
 14 15  1  0  0  0  0
 15 16  2  0  0  0  0
 16 17  1  0  0  0  0
 17 18  2  0  0  0  0
 18 19  1  0  0  0  0
 19 20  2  0  0  0  0
 20 21  1  0  0  0  0
  9 22  1  0  0  0  0
 22 23  1  0  0  0  0
 23 24  2  0  0  0  0
 24 25  1  0  0  0  0
 25 26  2  0  0  0  0
 26 27  1  0  0  0  0
 27 28  2  0  0  0  0
 22 29  2  0  0  0  0
  5 30  1  0  0  0  0
 30 31  2  0  0  0  0
 31  2  1  0  0  0  0
 29  7  1  0  0  0  0
 21 13  1  0  0  0  0
 28 23  1  0  0  0  0
 20 15  1  0  0  0  0
M  END
>  <zinc_id>  (334) 
ZINC000261492230

>  <smiles>  (334) 
Cc1ccc(Cn2nc(CNCc3nc4ccccc4[nH]3)c(-c3ccccc3)n2)cc1

>  <source_line>  (334) 
334

>  <source_data>  (334) 
ZINC000261492230

>  <source_name>  (334) 


>  <source_label>  (334) 
ZINC000261492230

>  <found_by>  (334) 
ZINC

> <Gold.Version>
5.8.1

> <Gold.Id.Protein>
ID|ID_protein|mol2

> <Gold.Goldscore.Fitness>
64.8410

> <Gold.Goldscore.Internal.Vdw>
-0.9933

> <Gold.Goldscore.Internal.Torsion>
-1.6592

> <Gold.Goldscore.External.Vdw>
53.0902

> <Gold.Goldscore.Internal.HBond>
0.0000

> <Gold.Goldscore.External.HBond>
0.4681

> <Gold.Goldscore.Internal.Correction>
5.9736

> <Gold.Goldscore.Hbonds>
donor molecule, donor type, donor heavy atom, donor atom, acceptor molecule, acceptor atom, score
      P1  H  1819  6078       L1    29  0.02
      P1  H  1916  6166       L1    14  0.21

> <Gold.Goldscore.Internal.Vdw.Weighted>
-0.9933

> <Gold.Goldscore.Internal.Torsion.Weighted>
-1.6592

> <Gold.Goldscore.External.Vdw.Weighted>
72.9990

> <Gold.Goldscore.Internal.HBond.Weighted>
0.0000

> <Gold.Goldscore.External.HBond.Weighted>
0.4681

> <Gold.Goldscore.Internal.Correction.Weighted>
5.9736

> <Gold.Protein.RotatedTorsions>
[ 4464  112  111  109 ] final  -41.97 input   60.00 | X-H torsion
[ 4839  441  440  439 ] final  -16.27 input   60.00 | X-H torsion
[ 4985  758  757  756 ] final  165.21 input   60.00 | X-H torsion
[ 5271 1023 1022 1020 ] final   -2.73 input   60.00 | X-H torsion
[ 6036 1776 1775 1774 ] final   34.06 input   60.00 | X-H torsion
[ 6078 1819 1818 1817 ] final -127.34 input   60.00 | X-H torsion
[ 6166 1916 1915 1913 ] final -103.85 input   60.00 | X-H torsion
[ 4818   65   64   63 ] final  155.31 input   60.00 | X-H torsion
[ 6268 1997 1996 1994 ] final -167.23 input   60.00 | X-H torsion
[ 8592   72   71   70 ] final   70.28 input   60.00 | X-H torsion
[ 4356  100   99   97 ] final -143.62 input   60.00 | X-H torsion
[ 8510  202  201  200 ] final  -38.52 input   60.00 | X-H torsion
[ 5330 1065 1064 1063 ] final   64.26 input   60.00 | X-H torsion
[ 6640 2347 2346 2344 ] final -160.19 input   60.00 | X-H torsion
[ 4452  380  379  378 ] final   74.26 input   60.00 | X-H torsion
[ 4500  391  390  389 ] final  -40.01 input   60.00 | X-H torsion

> <Gold.Protein.ActiveResidues>
 THR8    THR9    PRO10   ILE11   TYR12   TYR13   VAL14   ASN15   ALA16   HIS19  
 HIS22   SER25   VAL29   MET46   THR47   GLY48   THR49   ASP50   GLU51   HIS52  
 GLY53   GLN54   LYS55   VAL56   ALA57   GLU58   THR71   PHE78   ILE93   THR95  
 THR96   HIS100  GLU101  VAL104  TRP108  TYR126  VAL128  SER129  ASP130  GLU131 
 SER132  LEU210  SER211  ILE212  SER213  ARG214  LYS215  ARG216  SER218  VAL219 
 MET220  ASN221  TRP222  SER223  ILE224  PRO225  VAL226  HIS232  CYS233  ILE234 
 TYR235  VAL236  TRP237  LEU238  ASP239  ALA240  LEU241  PHE242  ASN243  TYR244 
 TYR245  THR246  HIS275  VAL276  VAL277  GLY278  LYS279  ASP280  ILE281  LEU282 
 LYS283  PHE284  HIS285  ALA286  ILE287  TYR288  TRP289  PRO290  PHE292  LEU304 
 TRP309 

> <Gold.Protein.RotatedAtoms>
  -32.0768   -6.9647   -6.3587 H   0  0  0  0  0  0  0  0  0  0  0  0  # atno 4356 bound_to 100 
  -30.9153   -9.3226   -7.9559 H   0  0  0  0  0  0  0  0  0  0  0  0  # atno 4452 bound_to 380 
  -44.7200  -11.4380  -16.5064 H   0  0  0  0  0  0  0  0  0  0  0  0  # atno 4464 bound_to 112 
  -33.8285  -10.9340  -15.8709 H   0  0  0  0  0  0  0  0  0  0  0  0  # atno 4500 bound_to 391 
  -31.6671  -16.2815   -3.9190 H   0  0  0  0  0  0  0  0  0  0  0  0  # atno 4818 bound_to 65  
  -49.5410  -10.8478  -13.7357 H   0  0  0  0  0  0  0  0  0  0  0  0  # atno 4839 bound_to 441 
  -48.1116  -11.3175  -14.4311 H   0  0  0  0  0  0  0  0  0  0  0  0  # atno 4840 bound_to 441 
  -48.3234  -11.4616  -12.7935 H   0  0  0  0  0  0  0  0  0  0  0  0  # atno 4841 bound_to 441 
  -38.5074  -17.4539  -15.8126 H   0  0  0  0  0  0  0  0  0  0  0  0  # atno 4985 bound_to 758 
  -54.2303  -17.5361  -13.6495 H   0  0  0  0  0  0  0  0  0  0  0  0  # atno 5271 bound_to 1023
  -54.3905  -14.6964   -8.3766 H   0  0  0  0  0  0  0  0  0  0  0  0  # atno 5330 bound_to 1065
  -54.7027  -16.2138  -18.5022 H   0  0  0  0  0  0  0  0  0  0  0  0  # atno 6036 bound_to 1776
  -45.5139  -18.0067  -18.2039 H   0  0  0  0  0  0  0  0  0  0  0  0  # atno 6078 bound_to 1819
  -48.8705  -15.1413  -11.3244 H   0  0  0  0  0  0  0  0  0  0  0  0  # atno 6166 bound_to 1916
  -35.7831  -16.0428   -4.5617 H   0  0  0  0  0  0  0  0  0  0  0  0  # atno 6268 bound_to 1997
  -49.0312  -19.7870   -2.4269 H   0  0  0  0  0  0  0  0  0  0  0  0  # atno 6640 bound_to 2347
  -34.9361   -6.7645   -1.1236 H   0  0  0  0  0  0  0  0  0  0  0  0  # atno 8510 bound_to 202 
  -31.7510   -9.1543   -3.4603 H   0  0  0  0  0  0  0  0  0  0  0  0  # atno 8592 bound_to 72  
  -45.8037  -10.2416  -16.3009 LP  0  0  0  0  0  0  0  0  0  0  0  0  # atno 8618 bound_to 112 
  -45.8890  -11.5906  -15.3846 LP  0  0  0  0  0  0  0  0  0  0  0  0  # atno 8619 bound_to 112 
  -37.1701  -18.2333  -16.3149 LP  0  0  0  0  0  0  0  0  0  0  0  0  # atno 8637 bound_to 758 
  -38.1407  -17.4902  -17.3976 LP  0  0  0  0  0  0  0  0  0  0  0  0  # atno 8638 bound_to 758 
  -54.6883  -16.0849  -14.2262 LP  0  0  0  0  0  0  0  0  0  0  0  0  # atno 8642 bound_to 1023
  -54.5527  -17.3618  -15.2350 LP  0  0  0  0  0  0  0  0  0  0  0  0  # atno 8643 bound_to 1023
  -53.3127  -16.8052  -17.8970 LP  0  0  0  0  0  0  0  0  0  0  0  0  # atno 8662 bound_to 1776
  -54.7383  -17.4959  -17.5006 LP  0  0  0  0  0  0  0  0  0  0  0  0  # atno 8663 bound_to 1776
  -46.4453  -17.6289  -19.4836 LP  0  0  0  0  0  0  0  0  0  0  0  0  # atno 8672 bound_to 1819
  -44.9326  -17.0253  -19.3646 LP  0  0  0  0  0  0  0  0  0  0  0  0  # atno 8673 bound_to 1819
  -50.2517  -15.8080  -10.7806 LP  0  0  0  0  0  0  0  0  0  0  0  0  # atno 8684 bound_to 1916
  -50.1403  -15.3020  -12.3292 LP  0  0  0  0  0  0  0  0  0  0  0  0  # atno 8685 bound_to 1916
  -31.1364  -15.0708   -2.9699 LP  0  0  0  0  0  0  0  0  0  0  0  0  # atno 8712 bound_to 65  
  -30.4693  -16.5567   -2.8524 LP  0  0  0  0  0  0  0  0  0  0  0  0  # atno 8713 bound_to 65  
  -35.0313  -15.1642   -5.7066 LP  0  0  0  0  0  0  0  0  0  0  0  0  # atno 8724 bound_to 1997
  -34.3966  -15.2690   -4.2057 LP  0  0  0  0  0  0  0  0  0  0  0  0  # atno 8725 bound_to 1997
  -32.9307   -9.5969   -4.4901 LP  0  0  0  0  0  0  0  0  0  0  0  0  # atno 8747 bound_to 72  
  -31.8415   -8.4628   -4.9305 LP  0  0  0  0  0  0  0  0  0  0  0  0  # atno 8748 bound_to 72  
  -32.5514   -8.4705   -5.9643 LP  0  0  0  0  0  0  0  0  0  0  0  0  # atno 8749 bound_to 100 
  -33.2751   -7.1772   -5.2784 LP  0  0  0  0  0  0  0  0  0  0  0  0  # atno 8750 bound_to 100 
  -35.5682   -7.6221   -2.3537 LP  0  0  0  0  0  0  0  0  0  0  0  0  # atno 8754 bound_to 202 
  -35.3749   -6.0067   -2.4952 LP  0  0  0  0  0  0  0  0  0  0  0  0  # atno 8755 bound_to 202 
  -53.8009  -16.0922   -7.7831 LP  0  0  0  0  0  0  0  0  0  0  0  0  # atno 8775 bound_to 1065
  -54.5638  -15.0392   -6.7953 LP  0  0  0  0  0  0  0  0  0  0  0  0  # atno 8776 bound_to 1065
  -49.0857  -20.6485   -1.0475 LP  0  0  0  0  0  0  0  0  0  0  0  0  # atno 8779 bound_to 2347
  -49.5780  -21.3195   -2.4525 LP  0  0  0  0  0  0  0  0  0  0  0  0  # atno 8780 bound_to 2347
  -31.1006   -9.4985   -9.5630 LP  0  0  0  0  0  0  0  0  0  0  0  0  # atno 8787 bound_to 380 
  -30.2842   -8.2155   -8.9679 LP  0  0  0  0  0  0  0  0  0  0  0  0  # atno 8788 bound_to 380 

$$$$
