unknown|11k_best|sdf|8322|dock9
  -GOLD-   3 721 1393D 1   1.00000     0.00000

 29 31  0  0  0  0  0  0  0  0  1 V2000
  -48.4959  -16.0498   -8.2712 C   0  0  0  0  0  0  0  0  0  0  0  0
  -49.8577  -15.5869   -8.5179 N   0  0  0  0  0  0  0  0  0  0  0  0
  -50.9481  -15.9381   -7.7968 C   0  0  0  0  0  0  0  0  0  0  0  0
  -51.1132  -17.1044   -6.9088 C   0  0  0  0  0  0  0  0  0  0  0  0
  -52.1527  -17.9816   -7.4399 N   0  0  0  0  0  0  0  0  0  0  0  0
  -51.6178  -19.5999   -7.2557 S   0  0  0  0  0  0  0  0  0  0  0  0
  -50.6276  -19.6316   -6.1132 O   0  0  0  0  0  0  0  0  0  0  0  0
  -50.9491  -20.1371   -8.4781 O   0  0  0  0  0  0  0  0  0  0  0  0
  -53.0079  -20.5838   -6.8085 C   0  0  0  0  0  0  0  0  0  0  0  0
  -53.1139  -21.1793   -5.5639 C   0  0  0  0  0  0  0  0  0  0  0  0
  -54.3374  -21.2162   -4.9068 C   0  0  0  0  0  0  0  0  0  0  0  0
  -55.4992  -20.7269   -5.4911 C   0  0  0  0  0  0  0  0  0  0  0  0
  -56.5004  -20.0100   -4.6402 C   0  0  0  0  0  0  0  0  0  0  0  0
  -56.1522  -20.1392   -3.3191 F   0  0  0  0  0  0  0  0  0  0  0  0
  -56.4222  -18.6604   -4.9703 F   0  0  0  0  0  0  0  0  0  0  0  0
  -57.7659  -20.5186   -4.8485 F   0  0  0  0  0  0  0  0  0  0  0  0
  -55.4236  -20.5111   -6.8617 C   0  0  0  0  0  0  0  0  0  0  0  0
  -54.1961  -20.4282   -7.5073 C   0  0  0  0  0  0  0  0  0  0  0  0
  -51.9606  -15.1410   -8.1796 N   0  0  0  0  0  0  0  0  0  0  0  0
  -51.4977  -14.3502   -9.1319 N   0  0  0  0  0  0  0  0  0  0  0  0
  -50.1832  -14.5582   -9.3123 C   0  0  0  0  0  0  0  0  0  0  0  0
  -49.1089  -13.3182  -10.0409 S   0  0  0  0  0  0  0  0  0  0  0  0
  -47.4027  -13.9009  -10.0558 C   0  0  0  0  0  0  0  0  0  0  0  0
  -46.8147  -13.9443  -11.4074 C   0  0  0  0  0  0  0  0  0  0  0  0
  -45.5138  -13.4854  -11.5686 C   0  0  0  0  0  0  0  0  0  0  0  0
  -44.9504  -13.3061  -12.8123 C   0  0  0  0  0  0  0  0  0  0  0  0
  -45.6046  -13.8881  -13.8909 C   0  0  0  0  0  0  0  0  0  0  0  0
  -46.6746  -14.7360  -13.6779 C   0  0  0  0  0  0  0  0  0  0  0  0
  -47.3205  -14.6951  -12.4483 C   0  0  0  0  0  0  0  0  0  0  0  0
  1  2  1  0  0  0  0
  2  3  1  0  0  0  0
  3  4  1  0  0  0  0
  4  5  1  0  0  0  0
  5  6  1  0  0  0  0
  6  7  2  0  0  0  0
  6  8  2  0  0  0  0
  6  9  1  0  0  0  0
  9 10  2  0  0  0  0
 10 11  1  0  0  0  0
 11 12  2  0  0  0  0
 12 13  1  0  0  0  0
 13 14  1  0  0  0  0
 13 15  1  0  0  0  0
 13 16  1  0  0  0  0
 12 17  1  0  0  0  0
 17 18  2  0  0  0  0
  3 19  2  0  0  0  0
 19 20  1  0  0  0  0
 20 21  2  0  0  0  0
 21 22  1  0  0  0  0
 22 23  1  0  0  0  0
 23 24  1  0  0  0  0
 24 25  2  0  0  0  0
 25 26  1  0  0  0  0
 26 27  2  0  0  0  0
 27 28  1  0  0  0  0
 28 29  2  0  0  0  0
 21  2  1  0  0  0  0
 29 24  1  0  0  0  0
 18  9  1  0  0  0  0
M  END
>  <zinc_id>  (322) 
ZINC000013565265

>  <smiles>  (322) 
Cn1c(CNS(=O)(=O)c2ccc(C(F)(F)F)cc2)nnc1SCc1ccccc1

>  <source_line>  (322) 
322

>  <source_data>  (322) 
ZINC000013565265

>  <source_name>  (322) 


>  <source_label>  (322) 
ZINC000013565265

>  <found_by>  (322) 
ZINC

> <Gold.Version>
5.8.1

> <Gold.Id.Protein>
ID|ID_protein|mol2

> <Gold.Goldscore.Fitness>
60.6596

> <Gold.Goldscore.Internal.Vdw>
2.3217

> <Gold.Goldscore.Internal.Torsion>
-4.4698

> <Gold.Goldscore.External.Vdw>
38.8080

> <Gold.Goldscore.Internal.HBond>
0.0000

> <Gold.Goldscore.External.HBond>
11.8260

> <Gold.Goldscore.Internal.Correction>
2.3793

> <Gold.Goldscore.Hbonds>
donor molecule, donor type, donor heavy atom, donor atom, acceptor molecule, acceptor atom, score
      P1  H  1741  5997       L1     8  1.00
      P1  H  1932  6181       L1     8  1.00
      P1  H  1065  5330       L1     5  0.62
      P1  H  2347  6640       L1     7  0.05

> <Gold.Goldscore.Internal.Vdw.Weighted>
2.3217

> <Gold.Goldscore.Internal.Torsion.Weighted>
-4.4698

> <Gold.Goldscore.External.Vdw.Weighted>
53.3610

> <Gold.Goldscore.Internal.HBond.Weighted>
0.0000

> <Gold.Goldscore.External.HBond.Weighted>
11.8260

> <Gold.Goldscore.Internal.Correction.Weighted>
2.3793

> <Gold.Protein.RotatedTorsions>
[ 4464  112  111  109 ] final   51.61 input   60.00 | X-H torsion
[ 4839  441  440  439 ] final  -86.71 input   60.00 | X-H torsion
[ 4985  758  757  756 ] final  113.26 input   60.00 | X-H torsion
[ 5271 1023 1022 1020 ] final   42.95 input   60.00 | X-H torsion
[ 6036 1776 1775 1774 ] final  126.42 input   60.00 | X-H torsion
[ 6078 1819 1818 1817 ] final   15.84 input   60.00 | X-H torsion
[ 6166 1916 1915 1913 ] final   89.65 input   60.00 | X-H torsion
[ 4818   65   64   63 ] final  141.91 input   60.00 | X-H torsion
[ 6268 1997 1996 1994 ] final  127.85 input   60.00 | X-H torsion
[ 8592   72   71   70 ] final -115.02 input   60.00 | X-H torsion
[ 4356  100   99   97 ] final -124.62 input   60.00 | X-H torsion
[ 8510  202  201  200 ] final    0.74 input   60.00 | X-H torsion
[ 5330 1065 1064 1063 ] final  -71.44 input   60.00 | X-H torsion
[ 6640 2347 2346 2344 ] final -102.36 input   60.00 | X-H torsion
[ 4452  380  379  378 ] final -116.10 input   60.00 | X-H torsion
[ 4500  391  390  389 ] final  144.43 input   60.00 | X-H torsion

> <Gold.Protein.ActiveResidues>
 THR8    THR9    PRO10   ILE11   TYR12   TYR13   VAL14   ASN15   ALA16   HIS19  
 HIS22   SER25   VAL29   MET46   THR47   GLY48   THR49   ASP50   GLU51   HIS52  
 GLY53   GLN54   LYS55   VAL56   ALA57   GLU58   THR71   PHE78   ILE93   THR95  
 THR96   HIS100  GLU101  VAL104  TRP108  TYR126  VAL128  SER129  ASP130  GLU131 
 SER132  LEU210  SER211  ILE212  SER213  ARG214  LYS215  ARG216  SER218  VAL219 
 MET220  ASN221  TRP222  SER223  ILE224  PRO225  VAL226  HIS232  CYS233  ILE234 
 TYR235  VAL236  TRP237  LEU238  ASP239  ALA240  LEU241  PHE242  ASN243  TYR244 
 TYR245  THR246  HIS275  VAL276  VAL277  GLY278  LYS279  ASP280  ILE281  LEU282 
 LYS283  PHE284  HIS285  ALA286  ILE287  TYR288  TRP289  PRO290  PHE292  LEU304 
 TRP309 

> <Gold.Protein.RotatedAtoms>
  -32.2423   -6.7544   -6.2040 H   0  0  0  0  0  0  0  0  0  0  0  0  # atno 4356 bound_to 100 
  -30.5344   -8.5777   -9.6225 H   0  0  0  0  0  0  0  0  0  0  0  0  # atno 4452 bound_to 380 
  -45.5636  -11.8405  -15.5121 H   0  0  0  0  0  0  0  0  0  0  0  0  # atno 4464 bound_to 112 
  -35.1148  -10.0864  -16.9326 H   0  0  0  0  0  0  0  0  0  0  0  0  # atno 4500 bound_to 391 
  -31.7400  -16.0755   -3.9164 H   0  0  0  0  0  0  0  0  0  0  0  0  # atno 4818 bound_to 65  
  -49.0692  -11.1664  -12.7900 H   0  0  0  0  0  0  0  0  0  0  0  0  # atno 4839 bound_to 441 
  -49.1380  -10.9113  -14.4264 H   0  0  0  0  0  0  0  0  0  0  0  0  # atno 4840 bound_to 441 
  -47.7688  -11.5491  -13.7438 H   0  0  0  0  0  0  0  0  0  0  0  0  # atno 4841 bound_to 441 
  -37.8516  -17.8929  -15.5900 H   0  0  0  0  0  0  0  0  0  0  0  0  # atno 4985 bound_to 758 
  -54.2533  -17.8971  -14.2800 H   0  0  0  0  0  0  0  0  0  0  0  0  # atno 5271 bound_to 1023
  -53.8497  -16.1112   -7.5318 H   0  0  0  0  0  0  0  0  0  0  0  0  # atno 5330 bound_to 1065
  -55.0503  -17.2592  -17.7200 H   0  0  0  0  0  0  0  0  0  0  0  0  # atno 6036 bound_to 1776
  -45.2029  -16.9877  -19.6257 H   0  0  0  0  0  0  0  0  0  0  0  0  # atno 6078 bound_to 1819
  -50.6232  -15.7545  -11.4204 H   0  0  0  0  0  0  0  0  0  0  0  0  # atno 6166 bound_to 1916
  -35.7026  -15.6725   -5.4924 H   0  0  0  0  0  0  0  0  0  0  0  0  # atno 6268 bound_to 1997
  -49.3629  -20.4852   -2.8984 H   0  0  0  0  0  0  0  0  0  0  0  0  # atno 6640 bound_to 2347
  -34.9460   -6.1861   -1.3703 H   0  0  0  0  0  0  0  0  0  0  0  0  # atno 8510 bound_to 202 
  -32.5344   -8.9312   -5.1440 H   0  0  0  0  0  0  0  0  0  0  0  0  # atno 8592 bound_to 72  
  -44.7729  -11.0583  -16.6999 LP  0  0  0  0  0  0  0  0  0  0  0  0  # atno 8618 bound_to 112 
  -46.0701  -10.3687  -15.9869 LP  0  0  0  0  0  0  0  0  0  0  0  0  # atno 8619 bound_to 112 
  -37.2968  -18.0551  -17.1112 LP  0  0  0  0  0  0  0  0  0  0  0  0  # atno 8637 bound_to 758 
  -38.6745  -17.2263  -16.8255 LP  0  0  0  0  0  0  0  0  0  0  0  0  # atno 8638 bound_to 758 
  -54.4934  -16.4326  -13.6123 LP  0  0  0  0  0  0  0  0  0  0  0  0  # atno 8642 bound_to 1023
  -54.7244  -16.6506  -15.2141 LP  0  0  0  0  0  0  0  0  0  0  0  0  # atno 8643 bound_to 1023
  -54.2725  -16.0947  -18.5489 LP  0  0  0  0  0  0  0  0  0  0  0  0  # atno 8662 bound_to 1776
  -53.4285  -17.1537  -17.6363 LP  0  0  0  0  0  0  0  0  0  0  0  0  # atno 8663 bound_to 1776
  -45.1794  -17.8342  -18.2360 LP  0  0  0  0  0  0  0  0  0  0  0  0  # atno 8672 bound_to 1819
  -46.5116  -17.8462  -19.1804 LP  0  0  0  0  0  0  0  0  0  0  0  0  # atno 8673 bound_to 1819
  -49.4387  -15.0565  -12.2908 LP  0  0  0  0  0  0  0  0  0  0  0  0  # atno 8684 bound_to 1916
  -49.1882  -15.4359  -10.7224 LP  0  0  0  0  0  0  0  0  0  0  0  0  # atno 8685 bound_to 1916
  -30.9742  -15.1318   -2.8343 LP  0  0  0  0  0  0  0  0  0  0  0  0  # atno 8712 bound_to 65  
  -30.5580  -16.7031   -2.9906 LP  0  0  0  0  0  0  0  0  0  0  0  0  # atno 8713 bound_to 65  
  -34.3267  -14.9477   -5.0132 LP  0  0  0  0  0  0  0  0  0  0  0  0  # atno 8724 bound_to 1997
  -35.1823  -15.8583   -3.9618 LP  0  0  0  0  0  0  0  0  0  0  0  0  # atno 8725 bound_to 1997
  -31.4154   -8.5841   -4.0147 LP  0  0  0  0  0  0  0  0  0  0  0  0  # atno 8747 bound_to 72  
  -32.5679   -9.7002   -3.7103 LP  0  0  0  0  0  0  0  0  0  0  0  0  # atno 8748 bound_to 72  
  -32.3295   -8.3788   -6.1625 LP  0  0  0  0  0  0  0  0  0  0  0  0  # atno 8749 bound_to 100 
  -33.3303   -7.4807   -5.2360 LP  0  0  0  0  0  0  0  0  0  0  0  0  # atno 8750 bound_to 100 
  -35.3457   -7.7126   -1.7676 LP  0  0  0  0  0  0  0  0  0  0  0  0  # atno 8754 bound_to 202 
  -35.5875   -6.4987   -2.8328 LP  0  0  0  0  0  0  0  0  0  0  0  0  # atno 8755 bound_to 202 
  -54.6440  -14.8291   -6.9207 LP  0  0  0  0  0  0  0  0  0  0  0  0  # atno 8775 bound_to 1065
  -54.2651  -14.8775   -8.5084 LP  0  0  0  0  0  0  0  0  0  0  0  0  # atno 8776 bound_to 1065
  -48.8872  -19.8658   -1.4707 LP  0  0  0  0  0  0  0  0  0  0  0  0  # atno 8779 bound_to 2347
  -49.4424  -21.3992   -1.5544 LP  0  0  0  0  0  0  0  0  0  0  0  0  # atno 8780 bound_to 2347
  -30.5061   -8.6495   -7.9970 LP  0  0  0  0  0  0  0  0  0  0  0  0  # atno 8787 bound_to 380 
  -31.2623   -9.8147   -8.8556 LP  0  0  0  0  0  0  0  0  0  0  0  0  # atno 8788 bound_to 380 

$$$$
