unknown|11k_best|sdf|8286|dock8
  -GOLD-   3 721 0523D 1   1.00000     0.00000

 31 33  0  0  0  0  0  0  0  0  1 V2000
  -44.1934  -17.9775  -15.3349 C   0  0  0  0  0  0  0  0  0  0  0  0
  -45.3182  -17.7479  -16.1789 O   0  0  0  0  0  0  0  0  0  0  0  0
  -46.3016  -16.8900  -15.6765 C   0  0  0  0  0  0  0  0  0  0  0  0
  -47.4110  -16.5535  -16.4310 C   0  0  0  0  0  0  0  0  0  0  0  0
  -48.2670  -15.5409  -16.0409 C   0  0  0  0  0  0  0  0  0  0  0  0
  -47.9422  -14.8128  -14.9095 C   0  0  0  0  0  0  0  0  0  0  0  0
  -46.9648  -15.2363  -14.0233 C   0  0  0  0  0  0  0  0  0  0  0  0
  -46.3240  -14.2001  -13.2029 C   0  0  0  0  0  0  0  0  0  0  0  0
  -46.8953  -13.3423  -12.3272 N   0  0  0  0  0  0  0  0  0  0  0  0
  -46.1036  -13.1075  -11.2757 C   0  0  0  0  0  0  0  0  0  0  0  0
  -46.6254  -12.6520   -9.9458 C   0  0  0  0  0  0  0  0  0  0  0  0
  -48.0954  -12.5004  -10.0550 C   0  0  0  0  0  0  0  0  0  0  0  0
  -48.5870  -11.7124  -10.9170 O   0  0  0  0  0  0  0  0  0  0  0  0
  -48.9990  -13.3990   -9.4858 O   0  0  0  0  0  0  0  0  0  0  0  0
  -50.4057  -13.2908   -9.6897 C   0  0  0  0  0  0  0  0  0  0  0  0
  -51.1507  -14.3461   -8.9627 C   0  0  0  0  0  0  0  0  0  0  0  0
  -51.6726  -14.0262   -7.8525 O   0  0  0  0  0  0  0  0  0  0  0  0
  -50.9484  -15.7214   -9.2118 N   0  0  0  0  0  0  0  0  0  0  0  0
  -51.4028  -16.7568   -8.3338 C   0  0  0  0  0  0  0  0  0  0  0  0
  -51.7803  -16.4407   -7.1669 O   0  0  0  0  0  0  0  0  0  0  0  0
  -50.8789  -18.0824   -8.4746 N   0  0  0  0  0  0  0  0  0  0  0  0
  -51.1631  -19.1121   -7.5022 C   0  0  0  0  0  0  0  0  0  0  0  0
  -52.6273  -19.3332   -7.4234 C   0  0  0  0  0  0  0  0  0  0  0  0
  -53.4930  -18.5034   -6.7500 C   0  0  0  0  0  0  0  0  0  0  0  0
  -54.7633  -18.9146   -6.3907 C   0  0  0  0  0  0  0  0  0  0  0  0
  -55.1459  -20.1815   -6.7482 C   0  0  0  0  0  0  0  0  0  0  0  0
  -54.3945  -20.9087   -7.6365 C   0  0  0  0  0  0  0  0  0  0  0  0
  -53.1747  -20.4299   -8.0730 C   0  0  0  0  0  0  0  0  0  0  0  0
  -44.8257  -12.7349  -11.6856 C   0  0  0  0  0  0  0  0  0  0  0  0
  -44.6981  -13.6568  -13.1319 S   0  0  0  0  0  0  0  0  0  0  0  0
  -46.2369  -16.3587  -14.3995 C   0  0  0  0  0  0  0  0  0  0  0  0
  1  2  1  0  0  0  0
  2  3  1  0  0  0  0
  3  4  2  0  0  0  0
  4  5  1  0  0  0  0
  5  6  2  0  0  0  0
  6  7  1  0  0  0  0
  7  8  1  0  0  0  0
  8  9  2  0  0  0  0
  9 10  1  0  0  0  0
 10 11  1  0  0  0  0
 11 12  1  0  0  0  0
 12 13  2  0  0  0  0
 12 14  1  0  0  0  0
 14 15  1  0  0  0  0
 15 16  1  0  0  0  0
 16 17  2  0  0  0  0
 16 18  1  0  0  0  0
 18 19  1  0  0  0  0
 19 20  2  0  0  0  0
 19 21  1  0  0  0  0
 21 22  1  0  0  0  0
 22 23  1  0  0  0  0
 23 24  2  0  0  0  0
 24 25  1  0  0  0  0
 25 26  2  0  0  0  0
 26 27  1  0  0  0  0
 27 28  2  0  0  0  0
 10 29  2  0  0  0  0
 29 30  1  0  0  0  0
  7 31  2  0  0  0  0
 31  3  1  0  0  0  0
 30  8  1  0  0  0  0
 28 23  1  0  0  0  0
M  END
>  <zinc_id>  (286) 
ZINC000009582990

>  <smiles>  (286) 
COc1cccc(-c2nc(CC(=O)OCC(=O)NC(=O)NCc3ccccc3)cs2)c1

>  <source_line>  (286) 
286

>  <source_data>  (286) 
ZINC000009582990

>  <source_name>  (286) 


>  <source_label>  (286) 
ZINC000009582990

>  <found_by>  (286) 
ZINC

> <Gold.Version>
5.8.1

> <Gold.Id.Protein>
ID|ID_protein|mol2

> <Gold.Goldscore.Fitness>
75.2812

> <Gold.Goldscore.Internal.Vdw>
1.1200

> <Gold.Goldscore.Internal.Torsion>
-8.2195

> <Gold.Goldscore.External.Vdw>
49.1106

> <Gold.Goldscore.Internal.HBond>
0.0000

> <Gold.Goldscore.External.HBond>
12.6536

> <Gold.Goldscore.Internal.Correction>
-2.2001

> <Gold.Goldscore.Hbonds>
donor molecule, donor type, donor heavy atom, donor atom, acceptor molecule, acceptor atom, score
      P1  H   441  4841       L1     9  0.80
      P1  H  1819  6078       L1     2  0.93
      P1  H  1916  6166       L1    18  1.00

> <Gold.Goldscore.Internal.Vdw.Weighted>
1.1200

> <Gold.Goldscore.Internal.Torsion.Weighted>
-8.2195

> <Gold.Goldscore.External.Vdw.Weighted>
67.5271

> <Gold.Goldscore.Internal.HBond.Weighted>
0.0000

> <Gold.Goldscore.External.HBond.Weighted>
12.6536

> <Gold.Goldscore.Internal.Correction.Weighted>
-2.2001

> <Gold.Protein.RotatedTorsions>
[ 4464  112  111  109 ] final   35.70 input   60.00 | X-H torsion
[ 4839  441  440  439 ] final  -53.31 input   60.00 | X-H torsion
[ 4985  758  757  756 ] final  174.57 input   60.00 | X-H torsion
[ 5271 1023 1022 1020 ] final  -51.49 input   60.00 | X-H torsion
[ 6036 1776 1775 1774 ] final -115.16 input   60.00 | X-H torsion
[ 6078 1819 1818 1817 ] final -122.58 input   60.00 | X-H torsion
[ 6166 1916 1915 1913 ] final  142.28 input   60.00 | X-H torsion
[ 4818   65   64   63 ] final  -82.10 input   60.00 | X-H torsion
[ 6268 1997 1996 1994 ] final -135.09 input   60.00 | X-H torsion
[ 8592   72   71   70 ] final  -41.40 input   60.00 | X-H torsion
[ 4356  100   99   97 ] final  -44.95 input   60.00 | X-H torsion
[ 8510  202  201  200 ] final -117.26 input   60.00 | X-H torsion
[ 5330 1065 1064 1063 ] final  -10.08 input   60.00 | X-H torsion
[ 6640 2347 2346 2344 ] final  -95.72 input   60.00 | X-H torsion
[ 4452  380  379  378 ] final   41.90 input   60.00 | X-H torsion
[ 4500  391  390  389 ] final -101.77 input   60.00 | X-H torsion

> <Gold.Protein.ActiveResidues>
 THR8    THR9    PRO10   ILE11   TYR12   TYR13   VAL14   ASN15   ALA16   HIS19  
 HIS22   SER25   VAL29   MET46   THR47   GLY48   THR49   ASP50   GLU51   HIS52  
 GLY53   GLN54   LYS55   VAL56   ALA57   GLU58   THR71   PHE78   ILE93   THR95  
 THR96   HIS100  GLU101  VAL104  TRP108  TYR126  VAL128  SER129  ASP130  GLU131 
 SER132  LEU210  SER211  ILE212  SER213  ARG214  LYS215  ARG216  SER218  VAL219 
 MET220  ASN221  TRP222  SER223  ILE224  PRO225  VAL226  HIS232  CYS233  ILE234 
 TYR235  VAL236  TRP237  LEU238  ASP239  ALA240  LEU241  PHE242  ASN243  TYR244 
 TYR245  THR246  HIS275  VAL276  VAL277  GLY278  LYS279  ASP280  ILE281  LEU282 
 LYS283  PHE284  HIS285  ALA286  ILE287  TYR288  TRP289  PRO290  PHE292  LEU304 
 TRP309 

> <Gold.Protein.RotatedAtoms>
  -33.1284   -6.8893   -5.4069 H   0  0  0  0  0  0  0  0  0  0  0  0  # atno 4356 bound_to 100 
  -31.1426   -9.6684   -8.2738 H   0  0  0  0  0  0  0  0  0  0  0  0  # atno 4452 bound_to 380 
  -45.3562  -11.9201  -15.6452 H   0  0  0  0  0  0  0  0  0  0  0  0  # atno 4464 bound_to 112 
  -33.6898  -10.0744  -16.2772 H   0  0  0  0  0  0  0  0  0  0  0  0  # atno 4500 bound_to 391 
  -30.4589  -16.5200   -2.8325 H   0  0  0  0  0  0  0  0  0  0  0  0  # atno 4818 bound_to 65  
  -49.4365  -10.9708  -13.1495 H   0  0  0  0  0  0  0  0  0  0  0  0  # atno 4839 bound_to 441 
  -48.6455  -11.0821  -14.6018 H   0  0  0  0  0  0  0  0  0  0  0  0  # atno 4840 bound_to 441 
  -47.8939  -11.5740  -13.2089 H   0  0  0  0  0  0  0  0  0  0  0  0  # atno 4841 bound_to 441 
  -38.5904  -17.3882  -15.9229 H   0  0  0  0  0  0  0  0  0  0  0  0  # atno 4985 bound_to 758 
  -54.3777  -16.8015  -13.4595 H   0  0  0  0  0  0  0  0  0  0  0  0  # atno 5271 bound_to 1023
  -53.8693  -15.7003   -8.3941 H   0  0  0  0  0  0  0  0  0  0  0  0  # atno 5330 bound_to 1065
  -53.4468  -17.1713  -17.6273 H   0  0  0  0  0  0  0  0  0  0  0  0  # atno 6036 bound_to 1776
  -45.4423  -17.9764  -18.2010 H   0  0  0  0  0  0  0  0  0  0  0  0  # atno 6078 bound_to 1819
  -50.1665  -15.7951  -10.7285 H   0  0  0  0  0  0  0  0  0  0  0  0  # atno 6166 bound_to 1916
  -35.4804  -15.9907   -4.1442 H   0  0  0  0  0  0  0  0  0  0  0  0  # atno 6268 bound_to 1997
  -49.3988  -20.5875   -2.8978 H   0  0  0  0  0  0  0  0  0  0  0  0  # atno 6640 bound_to 2347
  -35.3302   -7.6996   -1.7408 H   0  0  0  0  0  0  0  0  0  0  0  0  # atno 8510 bound_to 202 
  -32.9085   -9.6467   -4.3649 H   0  0  0  0  0  0  0  0  0  0  0  0  # atno 8592 bound_to 72  
  -44.8795  -10.8257  -16.7511 LP  0  0  0  0  0  0  0  0  0  0  0  0  # atno 8618 bound_to 112 
  -46.1726  -10.5212  -15.8016 LP  0  0  0  0  0  0  0  0  0  0  0  0  # atno 8619 bound_to 112 
  -37.2153  -18.2231  -16.1681 LP  0  0  0  0  0  0  0  0  0  0  0  0  # atno 8637 bound_to 758 
  -38.0119  -17.5666  -17.4334 LP  0  0  0  0  0  0  0  0  0  0  0  0  # atno 8638 bound_to 758 
  -54.7622  -16.3181  -14.9651 LP  0  0  0  0  0  0  0  0  0  0  0  0  # atno 8642 bound_to 1023
  -54.3304  -17.8683  -14.6875 LP  0  0  0  0  0  0  0  0  0  0  0  0  # atno 8643 bound_to 1023
  -55.0692  -17.2436  -17.7310 LP  0  0  0  0  0  0  0  0  0  0  0  0  # atno 8662 bound_to 1776
  -54.2465  -16.0933  -18.5474 LP  0  0  0  0  0  0  0  0  0  0  0  0  # atno 8663 bound_to 1776
  -46.4703  -17.6757  -19.4261 LP  0  0  0  0  0  0  0  0  0  0  0  0  # atno 8672 bound_to 1819
  -44.9796  -17.0090  -19.4250 LP  0  0  0  0  0  0  0  0  0  0  0  0  # atno 8673 bound_to 1819
  -50.2236  -15.3440  -12.2909 LP  0  0  0  0  0  0  0  0  0  0  0  0  # atno 8684 bound_to 1916
  -48.8632  -15.1076  -11.4190 LP  0  0  0  0  0  0  0  0  0  0  0  0  # atno 8685 bound_to 1916
  -31.6547  -16.3227   -3.9184 LP  0  0  0  0  0  0  0  0  0  0  0  0  # atno 8712 bound_to 65  
  -31.1678  -15.0647   -2.9981 LP  0  0  0  0  0  0  0  0  0  0  0  0  # atno 8713 bound_to 65  
  -35.4654  -15.4528   -5.6799 LP  0  0  0  0  0  0  0  0  0  0  0  0  # atno 8724 bound_to 1997
  -34.2673  -15.0328   -4.6529 LP  0  0  0  0  0  0  0  0  0  0  0  0  # atno 8725 bound_to 1997
  -31.9437   -8.5062   -5.0104 LP  0  0  0  0  0  0  0  0  0  0  0  0  # atno 8747 bound_to 72  
  -31.6629   -9.0575   -3.4992 LP  0  0  0  0  0  0  0  0  0  0  0  0  # atno 8748 bound_to 72  
  -31.9578   -7.2717   -6.4707 LP  0  0  0  0  0  0  0  0  0  0  0  0  # atno 8749 bound_to 100 
  -32.8097   -8.4520   -5.7305 LP  0  0  0  0  0  0  0  0  0  0  0  0  # atno 8750 bound_to 100 
  -35.5954   -6.5298   -2.8404 LP  0  0  0  0  0  0  0  0  0  0  0  0  # atno 8754 bound_to 202 
  -34.9509   -6.1572   -1.3870 LP  0  0  0  0  0  0  0  0  0  0  0  0  # atno 8755 bound_to 202 
  -54.2266  -15.6884   -6.8066 LP  0  0  0  0  0  0  0  0  0  0  0  0  # atno 8775 bound_to 1065
  -54.6629  -14.4320   -7.7541 LP  0  0  0  0  0  0  0  0  0  0  0  0  # atno 8776 bound_to 1065
  -48.8844  -19.8095   -1.5643 LP  0  0  0  0  0  0  0  0  0  0  0  0  # atno 8779 bound_to 2347
  -49.4090  -21.3525   -1.4615 LP  0  0  0  0  0  0  0  0  0  0  0  0  # atno 8780 bound_to 2347
  -30.8529   -9.0806   -9.7633 LP  0  0  0  0  0  0  0  0  0  0  0  0  # atno 8787 bound_to 380 
  -30.3030   -8.2853   -8.4475 LP  0  0  0  0  0  0  0  0  0  0  0  0  # atno 8788 bound_to 380 

$$$$
