unknown|11k_best|sdf|8255|dock2
  -GOLD-   3 721 0123D 1   1.00000     0.00000

 29 32  0  0  0  0  0  0  0  0  1 V2000
  -50.4499  -17.1662  -16.7437 C   0  0  0  0  0  0  0  0  0  0  0  0
  -49.1440  -16.7115  -16.2802 N   0  0  0  0  0  0  0  0  0  0  0  0
  -48.9929  -15.6263  -15.5298 N   0  0  0  0  0  0  0  0  0  0  0  0
  -47.7772  -15.1446  -15.1789 C   0  0  0  0  0  0  0  0  0  0  0  0
  -47.6083  -13.6845  -15.2064 C   0  0  0  0  0  0  0  0  0  0  0  0
  -48.1019  -13.1143  -16.2269 O   0  0  0  0  0  0  0  0  0  0  0  0
  -46.5171  -13.0143  -14.6055 N   0  0  0  0  0  0  0  0  0  0  0  0
  -45.6329  -13.5940  -13.6275 C   0  0  0  0  0  0  0  0  0  0  0  0
  -45.6529  -12.8636  -12.3259 C   0  0  0  0  0  0  0  0  0  0  0  0
  -44.4168  -12.5832  -11.7543 C   0  0  0  0  0  0  0  0  0  0  0  0
  -44.2537  -12.4553  -10.3824 C   0  0  0  0  0  0  0  0  0  0  0  0
  -45.1544  -13.1383   -9.5733 C   0  0  0  0  0  0  0  0  0  0  0  0
  -44.8079  -13.5420   -8.2650 N   0  0  0  0  0  0  0  0  0  0  0  0
  -43.3779  -13.5482   -7.9730 C   0  0  0  0  0  0  0  0  0  0  0  0
  -43.1392  -13.6910   -6.4754 C   0  0  0  0  0  0  0  0  0  0  0  0
  -44.1094  -12.8283   -5.6790 C   0  0  0  0  0  0  0  0  0  0  0  0
  -45.3055  -13.7088   -5.3406 C   0  0  0  0  0  0  0  0  0  0  0  0
  -45.3503  -14.8902   -6.2951 C   0  0  0  0  0  0  0  0  0  0  0  0
  -45.8315  -14.3715   -7.6362 C   0  0  0  0  0  0  0  0  0  0  0  0
  -46.4094  -13.2316  -10.0773 N   0  0  0  0  0  0  0  0  0  0  0  0
  -46.6162  -13.2902  -11.4161 C   0  0  0  0  0  0  0  0  0  0  0  0
  -46.6806  -15.9619  -15.4214 C   0  0  0  0  0  0  0  0  0  0  0  0
  -45.4141  -15.5138  -15.0955 C   0  0  0  0  0  0  0  0  0  0  0  0
  -44.3569  -16.3026  -15.5219 C   0  0  0  0  0  0  0  0  0  0  0  0
  -44.4930  -17.3056  -16.4529 C   0  0  0  0  0  0  0  0  0  0  0  0
  -45.7598  -17.8595  -16.5858 C   0  0  0  0  0  0  0  0  0  0  0  0
  -46.8594  -17.1466  -16.1258 C   0  0  0  0  0  0  0  0  0  0  0  0
  -48.0738  -17.4033  -16.7370 C   0  0  0  0  0  0  0  0  0  0  0  0
  -48.1587  -17.9558  -17.8746 O   0  0  0  0  0  0  0  0  0  0  0  0
  1  2  1  0  0  0  0
  2  3  1  0  0  0  0
  3  4  2  0  0  0  0
  4  5  1  0  0  0  0
  5  6  2  0  0  0  0
  5  7  1  0  0  0  0
  7  8  1  0  0  0  0
  8  9  1  0  0  0  0
  9 10  2  0  0  0  0
 10 11  1  0  0  0  0
 11 12  2  0  0  0  0
 12 13  1  0  0  0  0
 13 14  1  0  0  0  0
 14 15  1  0  0  0  0
 15 16  1  0  0  0  0
 16 17  1  0  0  0  0
 17 18  1  0  0  0  0
 18 19  1  0  0  0  0
 12 20  1  0  0  0  0
 20 21  2  0  0  0  0
  4 22  1  0  0  0  0
 22 23  2  0  0  0  0
 23 24  1  0  0  0  0
 24 25  2  0  0  0  0
 25 26  1  0  0  0  0
 26 27  2  0  0  0  0
 27 28  1  0  0  0  0
 28 29  2  0  0  0  0
 28  2  1  0  0  0  0
 21  9  1  0  0  0  0
 27 22  1  0  0  0  0
 19 13  1  0  0  0  0
M  END
>  <zinc_id>  (255) 
ZINC000048260214

>  <smiles>  (255) 
Cn1nc(C(=O)NCc2ccc(N3CCCCCC3)nc2)c2ccccc2c1=O

>  <source_line>  (255) 
255

>  <source_data>  (255) 
ZINC000048260214

>  <source_name>  (255) 


>  <source_label>  (255) 
ZINC000048260214

>  <found_by>  (255) 
ZINC

> <Gold.Version>
5.8.1

> <Gold.Id.Protein>
ID|ID_protein|mol2

> <Gold.Goldscore.Fitness>
63.2491

> <Gold.Goldscore.Internal.Vdw>
-3.0751

> <Gold.Goldscore.Internal.Torsion>
-6.7458

> <Gold.Goldscore.External.Vdw>
42.6516

> <Gold.Goldscore.Internal.HBond>
0.0000

> <Gold.Goldscore.External.HBond>
11.1376

> <Gold.Goldscore.Internal.Correction>
-3.2864

> <Gold.Goldscore.Hbonds>
donor molecule, donor type, donor heavy atom, donor atom, acceptor molecule, acceptor atom, score
      P1  H   112  4464       L1     7  1.00
      P1  H   426  4822       L1     6  0.01
      P1  H   435  4829       L1     6  0.23
      P1  H   441  4841       L1     7  0.28
      P1  H  1819  6078       L1    29  0.91

> <Gold.Goldscore.Internal.Vdw.Weighted>
-3.0751

> <Gold.Goldscore.Internal.Torsion.Weighted>
-6.7458

> <Gold.Goldscore.External.Vdw.Weighted>
58.6459

> <Gold.Goldscore.Internal.HBond.Weighted>
0.0000

> <Gold.Goldscore.External.HBond.Weighted>
11.1376

> <Gold.Goldscore.Internal.Correction.Weighted>
-3.2864

> <Gold.Protein.RotatedTorsions>
[ 4464  112  111  109 ] final   63.82 input   60.00 | X-H torsion
[ 4839  441  440  439 ] final  -93.74 input   60.00 | X-H torsion
[ 4985  758  757  756 ] final  157.93 input   60.00 | X-H torsion
[ 5271 1023 1022 1020 ] final   91.45 input   60.00 | X-H torsion
[ 6036 1776 1775 1774 ] final   -2.92 input   60.00 | X-H torsion
[ 6078 1819 1818 1817 ] final  159.95 input   60.00 | X-H torsion
[ 6166 1916 1915 1913 ] final  -11.52 input   60.00 | X-H torsion
[ 4818   65   64   63 ] final  -22.27 input   60.00 | X-H torsion
[ 6268 1997 1996 1994 ] final  -22.69 input   60.00 | X-H torsion
[ 8592   72   71   70 ] final  170.88 input   60.00 | X-H torsion
[ 4356  100   99   97 ] final   -1.40 input   60.00 | X-H torsion
[ 8510  202  201  200 ] final   20.80 input   60.00 | X-H torsion
[ 5330 1065 1064 1063 ] final   26.08 input   60.00 | X-H torsion
[ 6640 2347 2346 2344 ] final  102.07 input   60.00 | X-H torsion
[ 4452  380  379  378 ] final   90.80 input   60.00 | X-H torsion
[ 4500  391  390  389 ] final  109.68 input   60.00 | X-H torsion

> <Gold.Protein.ActiveResidues>
 THR8    THR9    PRO10   ILE11   TYR12   TYR13   VAL14   ASN15   ALA16   HIS19  
 HIS22   SER25   VAL29   MET46   THR47   GLY48   THR49   ASP50   GLU51   HIS52  
 GLY53   GLN54   LYS55   VAL56   ALA57   GLU58   THR71   PHE78   ILE93   THR95  
 THR96   HIS100  GLU101  VAL104  TRP108  TYR126  VAL128  SER129  ASP130  GLU131 
 SER132  LEU210  SER211  ILE212  SER213  ARG214  LYS215  ARG216  SER218  VAL219 
 MET220  ASN221  TRP222  SER223  ILE224  PRO225  VAL226  HIS232  CYS233  ILE234 
 TYR235  VAL236  TRP237  LEU238  ASP239  ALA240  LEU241  PHE242  ASN243  TYR244 
 TYR245  THR246  HIS275  VAL276  VAL277  GLY278  LYS279  ASP280  ILE281  LEU282 
 LYS283  PHE284  HIS285  ALA286  ILE287  TYR288  TRP289  PRO290  PHE292  LEU304 
 TRP309 

> <Gold.Protein.RotatedAtoms>
  -33.3289   -7.5335   -5.2418 H   0  0  0  0  0  0  0  0  0  0  0  0  # atno 4356 bound_to 100 
  -30.7758   -9.1004   -7.8948 H   0  0  0  0  0  0  0  0  0  0  0  0  # atno 4452 bound_to 380 
  -45.7188  -11.7398  -15.4381 H   0  0  0  0  0  0  0  0  0  0  0  0  # atno 4464 bound_to 112 
  -35.3492  -10.5695  -16.7768 H   0  0  0  0  0  0  0  0  0  0  0  0  # atno 4500 bound_to 391 
  -30.5321  -15.6229   -2.5839 H   0  0  0  0  0  0  0  0  0  0  0  0  # atno 4818 bound_to 65  
  -48.9692  -11.2118  -12.7483 H   0  0  0  0  0  0  0  0  0  0  0  0  # atno 4839 bound_to 441 
  -49.2263  -10.8865  -14.3531 H   0  0  0  0  0  0  0  0  0  0  0  0  # atno 4840 bound_to 441 
  -47.7803  -11.5285  -13.8589 H   0  0  0  0  0  0  0  0  0  0  0  0  # atno 4841 bound_to 441 
  -38.4323  -17.5101  -15.7395 H   0  0  0  0  0  0  0  0  0  0  0  0  # atno 4985 bound_to 758 
  -54.4328  -17.6866  -14.9976 H   0  0  0  0  0  0  0  0  0  0  0  0  # atno 5271 bound_to 1023
  -54.0908  -15.1934   -8.5720 H   0  0  0  0  0  0  0  0  0  0  0  0  # atno 5330 bound_to 1065
  -54.1205  -16.1011  -18.5317 H   0  0  0  0  0  0  0  0  0  0  0  0  # atno 6036 bound_to 1776
  -46.4233  -18.0203  -18.8399 H   0  0  0  0  0  0  0  0  0  0  0  0  # atno 6078 bound_to 1819
  -49.7235  -15.1393  -12.3715 H   0  0  0  0  0  0  0  0  0  0  0  0  # atno 6166 bound_to 1916
  -34.2802  -15.0828   -4.5393 H   0  0  0  0  0  0  0  0  0  0  0  0  # atno 6268 bound_to 1997
  -48.9769  -20.3099   -1.1181 H   0  0  0  0  0  0  0  0  0  0  0  0  # atno 6640 bound_to 2347
  -35.0145   -5.9844   -1.6174 H   0  0  0  0  0  0  0  0  0  0  0  0  # atno 8510 bound_to 202 
  -31.6362   -8.4185   -4.6935 H   0  0  0  0  0  0  0  0  0  0  0  0  # atno 8592 bound_to 72  
  -44.7271  -11.2396  -16.6273 LP  0  0  0  0  0  0  0  0  0  0  0  0  # atno 8618 bound_to 112 
  -45.9597  -10.2888  -16.1341 LP  0  0  0  0  0  0  0  0  0  0  0  0  # atno 8619 bound_to 112 
  -37.1491  -18.2319  -16.4327 LP  0  0  0  0  0  0  0  0  0  0  0  0  # atno 8637 bound_to 758 
  -38.2373  -17.4351  -17.3534 LP  0  0  0  0  0  0  0  0  0  0  0  0  # atno 8638 bound_to 758 
  -54.2866  -17.1639  -13.4635 LP  0  0  0  0  0  0  0  0  0  0  0  0  # atno 8642 bound_to 1023
  -54.7505  -16.1311  -14.6402 LP  0  0  0  0  0  0  0  0  0  0  0  0  # atno 8643 bound_to 1023
  -53.5128  -17.2587  -17.5627 LP  0  0  0  0  0  0  0  0  0  0  0  0  # atno 8662 bound_to 1776
  -55.1244  -17.1559  -17.8052 LP  0  0  0  0  0  0  0  0  0  0  0  0  # atno 8663 bound_to 1776
  -45.5524  -17.0346  -19.7980 LP  0  0  0  0  0  0  0  0  0  0  0  0  # atno 8672 bound_to 1819
  -44.9096  -17.6059  -18.4098 LP  0  0  0  0  0  0  0  0  0  0  0  0  # atno 8673 bound_to 1819
  -48.9964  -15.3048  -10.9252 LP  0  0  0  0  0  0  0  0  0  0  0  0  # atno 8684 bound_to 1916
  -50.5365  -15.8073  -11.1302 LP  0  0  0  0  0  0  0  0  0  0  0  0  # atno 8685 bound_to 1916
  -31.0199  -16.8762   -3.5001 LP  0  0  0  0  0  0  0  0  0  0  0  0  # atno 8712 bound_to 65  
  -31.7288  -15.4146   -3.6668 LP  0  0  0  0  0  0  0  0  0  0  0  0  # atno 8713 bound_to 65  
  -35.5724  -16.0201   -4.2232 LP  0  0  0  0  0  0  0  0  0  0  0  0  # atno 8724 bound_to 1997
  -35.3690  -15.3799   -5.7117 LP  0  0  0  0  0  0  0  0  0  0  0  0  # atno 8725 bound_to 1997
  -31.9825   -9.3660   -3.4166 LP  0  0  0  0  0  0  0  0  0  0  0  0  # atno 8747 bound_to 72  
  -32.9054   -9.4346   -4.7621 LP  0  0  0  0  0  0  0  0  0  0  0  0  # atno 8748 bound_to 72  
  -32.2710   -6.7211   -6.1740 LP  0  0  0  0  0  0  0  0  0  0  0  0  # atno 8749 bound_to 100 
  -32.2946   -8.3538   -6.1934 LP  0  0  0  0  0  0  0  0  0  0  0  0  # atno 8750 bound_to 100 
  -35.2154   -7.5942   -1.4903 LP  0  0  0  0  0  0  0  0  0  0  0  0  # atno 8754 bound_to 202 
  -35.6488   -6.8201   -2.8613 LP  0  0  0  0  0  0  0  0  0  0  0  0  # atno 8755 bound_to 202 
  -53.9594  -16.0414   -7.1893 LP  0  0  0  0  0  0  0  0  0  0  0  0  # atno 8775 bound_to 1065
  -54.7070  -14.5895   -7.1922 LP  0  0  0  0  0  0  0  0  0  0  0  0  # atno 8776 bound_to 1065
  -49.5639  -21.4544   -2.1148 LP  0  0  0  0  0  0  0  0  0  0  0  0  # atno 8779 bound_to 2347
  -49.1544  -19.9871   -2.7032 LP  0  0  0  0  0  0  0  0  0  0  0  0  # atno 8780 bound_to 2347
  -31.1911   -9.6605   -9.3652 LP  0  0  0  0  0  0  0  0  0  0  0  0  # atno 8787 bound_to 380 
  -30.3342   -8.2773   -9.2273 LP  0  0  0  0  0  0  0  0  0  0  0  0  # atno 8788 bound_to 380 

$$$$
