unknown|11k_best|sdf|8336|dock4
  -GOLD-   3 721 1543D 1   1.00000     0.00000

 29 32  0  0  0  0  0  0  0  0  1 V2000
  -42.8105  -19.3735  -17.3980 C   0  0  0  0  0  0  0  0  0  0  0  0
  -43.3171  -18.9810  -17.0546 O   0  0  0  0  0  0  0  0  0  0  0  0
  -43.8003  -18.0460  -16.1666 C   0  0  0  0  0  0  0  0  0  0  0  0
  -42.9230  -17.4576  -15.2851 C   0  0  0  0  0  0  0  0  0  0  0  0
  -43.4272  -16.5042  -14.4175 C   0  0  0  0  0  0  0  0  0  0  0  0
  -44.7245  -16.0368  -14.5029 C   0  0  0  0  0  0  0  0  0  0  0  0
  -44.9819  -14.6156  -14.2385 C   0  0  0  0  0  0  0  0  0  0  0  0
  -44.3946  -13.8159  -13.2660 C   0  0  0  0  0  0  0  0  0  0  0  0
  -45.3408  -12.8815  -12.8647 C   0  0  0  0  0  0  0  0  0  0  0  0
  -45.3822  -12.1467  -11.5938 C   0  0  0  0  0  0  0  0  0  0  0  0
  -45.5602  -10.8965  -11.7119 O   0  0  0  0  0  0  0  0  0  0  0  0
  -44.4777  -12.5977  -10.5791 N   0  0  0  0  0  0  0  0  0  0  0  0
  -43.8820  -11.6681   -9.6255 C   0  0  0  0  0  0  0  0  0  0  0  0
  -42.3014  -11.6872  -10.0569 C   0  0  1  0  0  0  0  0  0  0  0  0
  -41.9339  -10.4758   -9.0256 C   0  0  0  0  0  0  0  0  0  0  0  0
  -40.4371  -10.4026   -8.9552 C   0  0  0  0  0  0  0  0  0  0  0  0
  -40.1195  -11.6551   -8.1459 C   0  0  0  0  0  0  0  0  0  0  0  0
  -40.4287  -12.7617   -8.9335 N   0  0  0  0  0  0  0  0  0  0  0  0
  -40.0645  -13.9489   -8.1528 C   0  0  0  0  0  0  0  0  0  0  0  0
  -40.4452  -13.5965   -6.7195 C   0  0  0  0  0  0  0  0  0  0  0  0
  -41.8878  -13.2106   -6.5831 C   0  0  0  0  0  0  0  0  0  0  0  0
  -42.3388  -12.1899   -7.5840 C   0  0  0  0  0  0  0  0  0  0  0  0
  -41.9925  -13.0161   -8.9790 C   0  0  1  0  0  0  0  0  0  0  0  0
  -46.2326  -12.8470  -13.8706 N   0  0  0  0  0  0  0  0  0  0  0  0
  -46.0288  -13.8860  -14.6744 N   0  0  0  0  0  0  0  0  0  0  0  0
  -45.5374  -16.6256  -15.4638 C   0  0  0  0  0  0  0  0  0  0  0  0
  -46.7667  -16.0508  -15.7519 O   0  0  0  0  0  0  0  0  0  0  0  0
  -47.7447  -16.6671  -16.5506 C   0  0  0  0  0  0  0  0  0  0  0  0
  -45.1585  -17.8068  -16.0862 C   0  0  0  0  0  0  0  0  0  0  0  0
  1  2  1  0  0  0  0
  2  3  1  0  0  0  0
  3  4  2  0  0  0  0
  4  5  1  0  0  0  0
  5  6  2  0  0  0  0
  6  7  1  0  0  0  0
  7  8  2  0  0  0  0
  8  9  1  0  0  0  0
  9 10  1  0  0  0  0
 10 11  2  0  0  0  0
 10 12  1  0  0  0  0
 12 13  1  0  0  0  0
 14 13  1  0  0  0  0
 14 15  1  0  0  0  0
 15 16  1  0  0  0  0
 16 17  1  0  0  0  0
 17 18  1  0  0  0  0
 18 19  1  0  0  0  0
 19 20  1  0  0  0  0
 20 21  1  0  0  0  0
 21 22  1  0  0  0  0
 23 22  1  0  0  0  0
  9 24  2  0  0  0  0
 24 25  1  0  0  0  0
  6 26  1  0  0  0  0
 26 27  1  0  0  0  0
 27 28  1  0  0  0  0
 26 29  2  0  0  0  0
 29  3  1  0  0  0  0
 25  7  1  0  0  0  0
 23 14  1  0  0  0  0
 23 18  1  0  0  0  0
M  END
>  <zinc_id>  (336) 
ZINC000252536647

>  <smiles>  (336) 
COc1ccc(-c2cc(C(=O)NC[C@H]3CCCN4CCCC[C@@H]34)n[nH]2)c(OC)c1

>  <source_line>  (336) 
336

>  <source_data>  (336) 
ZINC000252536647

>  <source_name>  (336) 


>  <source_label>  (336) 
ZINC000252536647

>  <found_by>  (336) 
ZINC

> <Gold.Version>
5.8.1

> <Gold.Id.Protein>
ID|ID_protein|mol2

> <Gold.Goldscore.Fitness>
70.1002

> <Gold.Goldscore.Internal.Vdw>
1.2319

> <Gold.Goldscore.Internal.Torsion>
-6.7838

> <Gold.Goldscore.External.Vdw>
48.1961

> <Gold.Goldscore.Internal.HBond>
0.0000

> <Gold.Goldscore.External.HBond>
6.2240

> <Gold.Goldscore.Internal.Correction>
-3.1584

> <Gold.Goldscore.Hbonds>
donor molecule, donor type, donor heavy atom, donor atom, acceptor molecule, acceptor atom, score
      P1  H   441  4841       L1    24  1.00
      P1  H  1822  6079       L1     2  0.11

> <Gold.Goldscore.Internal.Vdw.Weighted>
1.2319

> <Gold.Goldscore.Internal.Torsion.Weighted>
-6.7838

> <Gold.Goldscore.External.Vdw.Weighted>
66.2696

> <Gold.Goldscore.Internal.HBond.Weighted>
0.0000

> <Gold.Goldscore.External.HBond.Weighted>
6.2240

> <Gold.Goldscore.Internal.Correction.Weighted>
-3.1584

> <Gold.Protein.RotatedTorsions>
[ 4464  112  111  109 ] final  -10.72 input   60.00 | X-H torsion
[ 4839  441  440  439 ] final  -91.44 input   60.00 | X-H torsion
[ 4985  758  757  756 ] final -163.79 input   60.00 | X-H torsion
[ 5271 1023 1022 1020 ] final  -43.59 input   60.00 | X-H torsion
[ 6036 1776 1775 1774 ] final   37.19 input   60.00 | X-H torsion
[ 6078 1819 1818 1817 ] final  -36.60 input   60.00 | X-H torsion
[ 6166 1916 1915 1913 ] final  -61.07 input   60.00 | X-H torsion
[ 4818   65   64   63 ] final  124.22 input   60.00 | X-H torsion
[ 6268 1997 1996 1994 ] final -136.09 input   60.00 | X-H torsion
[ 8592   72   71   70 ] final -126.42 input   60.00 | X-H torsion
[ 4356  100   99   97 ] final  156.22 input   60.00 | X-H torsion
[ 8510  202  201  200 ] final  -53.85 input   60.00 | X-H torsion
[ 5330 1065 1064 1063 ] final  -38.47 input   60.00 | X-H torsion
[ 6640 2347 2346 2344 ] final  -96.22 input   60.00 | X-H torsion
[ 4452  380  379  378 ] final   70.03 input   60.00 | X-H torsion
[ 4500  391  390  389 ] final   79.26 input   60.00 | X-H torsion

> <Gold.Protein.ActiveResidues>
 THR8    THR9    PRO10   ILE11   TYR12   TYR13   VAL14   ASN15   ALA16   HIS19  
 HIS22   SER25   VAL29   MET46   THR47   GLY48   THR49   ASP50   GLU51   HIS52  
 GLY53   GLN54   LYS55   VAL56   ALA57   GLU58   THR71   PHE78   ILE93   THR95  
 THR96   HIS100  GLU101  VAL104  TRP108  TYR126  VAL128  SER129  ASP130  GLU131 
 SER132  LEU210  SER211  ILE212  SER213  ARG214  LYS215  ARG216  SER218  VAL219 
 MET220  ASN221  TRP222  SER223  ILE224  PRO225  VAL226  HIS232  CYS233  ILE234 
 TYR235  VAL236  TRP237  LEU238  ASP239  ALA240  LEU241  PHE242  ASN243  TYR244 
 TYR245  THR246  HIS275  VAL276  VAL277  GLY278  LYS279  ASP280  ILE281  LEU282 
 LYS283  PHE284  HIS285  ALA286  ILE287  TYR288  TRP289  PRO290  PHE292  LEU304 
 TRP309 

> <Gold.Protein.RotatedAtoms>
  -31.9969   -7.8949   -6.4540 H   0  0  0  0  0  0  0  0  0  0  0  0  # atno 4356 bound_to 100 
  -30.9495   -9.3761   -7.9835 H   0  0  0  0  0  0  0  0  0  0  0  0  # atno 4452 bound_to 380 
  -44.8539  -11.7888  -16.1697 H   0  0  0  0  0  0  0  0  0  0  0  0  # atno 4464 bound_to 112 
  -35.3042  -10.9895  -16.5259 H   0  0  0  0  0  0  0  0  0  0  0  0  # atno 4500 bound_to 391 
  -31.7818  -15.7969   -3.8577 H   0  0  0  0  0  0  0  0  0  0  0  0  # atno 4818 bound_to 65  
  -49.0026  -11.1969  -12.7605 H   0  0  0  0  0  0  0  0  0  0  0  0  # atno 4839 bound_to 441 
  -49.1983  -10.8941  -14.3783 H   0  0  0  0  0  0  0  0  0  0  0  0  # atno 4840 bound_to 441 
  -47.7751  -11.5358  -13.8215 H   0  0  0  0  0  0  0  0  0  0  0  0  # atno 4841 bound_to 441 
  -38.7130  -17.2730  -16.2316 H   0  0  0  0  0  0  0  0  0  0  0  0  # atno 4985 bound_to 758 
  -54.3447  -16.9255  -13.4463 H   0  0  0  0  0  0  0  0  0  0  0  0  # atno 5271 bound_to 1023
  -53.7965  -15.9917   -8.0467 H   0  0  0  0  0  0  0  0  0  0  0  0  # atno 5330 bound_to 1065
  -54.7468  -16.2364  -18.4889 H   0  0  0  0  0  0  0  0  0  0  0  0  # atno 6036 bound_to 1776
  -44.7641  -17.2041  -18.9585 H   0  0  0  0  0  0  0  0  0  0  0  0  # atno 6078 bound_to 1819
  -49.0615  -15.0179  -11.9683 H   0  0  0  0  0  0  0  0  0  0  0  0  # atno 6166 bound_to 1916
  -35.4923  -15.9948   -4.1545 H   0  0  0  0  0  0  0  0  0  0  0  0  # atno 6268 bound_to 1997
  -49.3962  -20.5797   -2.8982 H   0  0  0  0  0  0  0  0  0  0  0  0  # atno 6640 bound_to 2347
  -34.9780   -7.0106   -1.1330 H   0  0  0  0  0  0  0  0  0  0  0  0  # atno 8510 bound_to 202 
  -32.3968   -8.8076   -5.1617 H   0  0  0  0  0  0  0  0  0  0  0  0  # atno 8592 bound_to 72  
  -45.4040  -10.3202  -16.6041 LP  0  0  0  0  0  0  0  0  0  0  0  0  # atno 8618 bound_to 112 
  -46.1538  -11.1589  -15.4205 LP  0  0  0  0  0  0  0  0  0  0  0  0  # atno 8619 bound_to 112 
  -37.3909  -18.1500  -15.8695 LP  0  0  0  0  0  0  0  0  0  0  0  0  # atno 8637 bound_to 758 
  -37.7129  -17.7557  -17.4211 LP  0  0  0  0  0  0  0  0  0  0  0  0  # atno 8638 bound_to 758 
  -54.7631  -16.2397  -14.8615 LP  0  0  0  0  0  0  0  0  0  0  0  0  # atno 8642 bound_to 1023
  -54.3627  -17.8218  -14.8044 LP  0  0  0  0  0  0  0  0  0  0  0  0  # atno 8643 bound_to 1023
  -53.3131  -16.7646  -17.9288 LP  0  0  0  0  0  0  0  0  0  0  0  0  # atno 8662 bound_to 1776
  -54.6936  -17.5138  -17.4821 LP  0  0  0  0  0  0  0  0  0  0  0  0  # atno 8663 bound_to 1776
  -45.9556  -18.1204  -18.3350 LP  0  0  0  0  0  0  0  0  0  0  0  0  # atno 8672 bound_to 1819
  -46.1774  -17.3421  -19.7533 LP  0  0  0  0  0  0  0  0  0  0  0  0  # atno 8673 bound_to 1819
  -49.6188  -15.6391  -10.5713 LP  0  0  0  0  0  0  0  0  0  0  0  0  # atno 8684 bound_to 1916
  -50.5808  -15.5953  -11.8901 LP  0  0  0  0  0  0  0  0  0  0  0  0  # atno 8685 bound_to 1916
  -30.7714  -15.2813   -2.6909 LP  0  0  0  0  0  0  0  0  0  0  0  0  # atno 8712 bound_to 65  
  -30.7187  -16.8343   -3.1931 LP  0  0  0  0  0  0  0  0  0  0  0  0  # atno 8713 bound_to 65  
  -35.4531  -15.4432   -5.6850 LP  0  0  0  0  0  0  0  0  0  0  0  0  # atno 8724 bound_to 1997
  -34.2676  -15.0383   -4.6374 LP  0  0  0  0  0  0  0  0  0  0  0  0  # atno 8725 bound_to 1997
  -31.4337   -8.6817   -3.8561 LP  0  0  0  0  0  0  0  0  0  0  0  0  # atno 8747 bound_to 72  
  -32.6882   -9.7271   -3.8511 LP  0  0  0  0  0  0  0  0  0  0  0  0  # atno 8748 bound_to 72  
  -33.1950   -8.1095   -5.3739 LP  0  0  0  0  0  0  0  0  0  0  0  0  # atno 8749 bound_to 100 
  -32.7119   -6.6015   -5.7728 LP  0  0  0  0  0  0  0  0  0  0  0  0  # atno 8750 bound_to 100 
  -35.6255   -7.4771   -2.5512 LP  0  0  0  0  0  0  0  0  0  0  0  0  # atno 8754 bound_to 202 
  -35.2754   -5.9039   -2.2882 LP  0  0  0  0  0  0  0  0  0  0  0  0  # atno 8755 bound_to 202 
  -54.4488  -15.2898   -6.7314 LP  0  0  0  0  0  0  0  0  0  0  0  0  # atno 8775 bound_to 1065
  -54.5140  -14.5371   -8.1791 LP  0  0  0  0  0  0  0  0  0  0  0  0  # atno 8776 bound_to 1065
  -48.8845  -19.8134   -1.5570 LP  0  0  0  0  0  0  0  0  0  0  0  0  # atno 8779 bound_to 2347
  -49.4117  -21.3564   -1.4683 LP  0  0  0  0  0  0  0  0  0  0  0  0  # atno 8780 bound_to 2347
  -31.0727   -9.4499   -9.6044 LP  0  0  0  0  0  0  0  0  0  0  0  0  # atno 8787 bound_to 380 
  -30.2778   -8.2103   -8.8987 LP  0  0  0  0  0  0  0  0  0  0  0  0  # atno 8788 bound_to 380 

$$$$
