unknown|11k_best|sdf|8284|dock3
  -GOLD-   3 721 0473D 1   1.00000     0.00000

 29 32  0  0  0  0  0  0  0  0  1 V2000
  -42.0751  -19.7426  -17.4725 C   0  0  0  0  0  0  0  0  0  0  0  0
  -43.4270  -19.4012  -17.2677 O   0  0  0  0  0  0  0  0  0  0  0  0
  -43.8219  -18.5375  -16.2706 C   0  0  0  0  0  0  0  0  0  0  0  0
  -45.1679  -18.2452  -16.1096 C   0  0  0  0  0  0  0  0  0  0  0  0
  -45.5788  -17.0511  -15.5297 C   0  0  0  0  0  0  0  0  0  0  0  0
  -44.6042  -16.2233  -14.9887 C   0  0  0  0  0  0  0  0  0  0  0  0
  -44.8189  -14.7424  -14.9505 C   0  0  0  0  0  0  0  0  0  0  0  0
  -43.9728  -14.2191  -13.8263 C   0  0  0  0  0  0  0  0  0  0  0  0
  -44.8047  -13.5890  -12.7526 C   0  0  0  0  0  0  0  0  0  0  0  0
  -46.1550  -13.5687  -12.6352 N   0  0  0  0  0  0  0  0  0  0  0  0
  -46.6195  -12.3639  -12.4320 N   0  0  0  0  0  0  0  0  0  0  0  0
  -46.0284  -11.7577  -11.3711 C   0  0  0  0  0  0  0  0  0  0  0  0
  -46.4565  -10.4568  -10.9347 N   0  0  0  0  0  0  0  0  0  0  0  0
  -45.6484   -9.6431  -10.0766 C   0  0  0  0  0  0  0  0  0  0  0  0
  -44.4116   -9.9166  -10.0517 O   0  0  0  0  0  0  0  0  0  0  0  0
  -46.0037   -8.2209   -9.7685 C   0  0  0  0  0  0  0  0  0  0  0  0
  -45.2053   -7.3617  -10.5529 O   0  0  0  0  0  0  0  0  0  0  0  0
  -44.1068   -6.7904   -9.9133 C   0  0  0  0  0  0  0  0  0  0  0  0
  -43.3026   -5.8518  -10.5441 C   0  0  0  0  0  0  0  0  0  0  0  0
  -41.9465   -5.7953  -10.2602 C   0  0  0  0  0  0  0  0  0  0  0  0
  -41.3596   -6.6553   -9.3501 C   0  0  0  0  0  0  0  0  0  0  0  0
  -42.2350   -7.3418   -8.5205 C   0  0  0  0  0  0  0  0  0  0  0  0
  -43.6040   -7.3150   -8.7305 C   0  0  0  0  0  0  0  0  0  0  0  0
  -41.4645   -7.9847   -7.5580 O   0  0  0  0  0  0  0  0  0  0  0  0
  -40.1645   -8.0702   -8.0824 C   0  0  0  0  0  0  0  0  0  0  0  0
  -40.1580   -7.3692   -9.3142 O   0  0  0  0  0  0  0  0  0  0  0  0
  -44.4303  -12.3514  -11.6184 S   0  0  0  0  0  0  0  0  0  0  0  0
  -43.4064  -16.8127  -14.6663 C   0  0  0  0  0  0  0  0  0  0  0  0
  -42.9296  -17.8530  -15.4556 C   0  0  0  0  0  0  0  0  0  0  0  0
  1  2  1  0  0  0  0
  2  3  1  0  0  0  0
  3  4  2  0  0  0  0
  4  5  1  0  0  0  0
  5  6  2  0  0  0  0
  6  7  1  0  0  0  0
  7  8  1  0  0  0  0
  8  9  1  0  0  0  0
  9 10  2  0  0  0  0
 10 11  1  0  0  0  0
 11 12  2  0  0  0  0
 12 13  1  0  0  0  0
 13 14  1  0  0  0  0
 14 15  2  0  0  0  0
 14 16  1  0  0  0  0
 16 17  1  0  0  0  0
 17 18  1  0  0  0  0
 18 19  2  0  0  0  0
 19 20  1  0  0  0  0
 20 21  2  0  0  0  0
 21 22  1  0  0  0  0
 22 23  2  0  0  0  0
 22 24  1  0  0  0  0
 24 25  1  0  0  0  0
 25 26  1  0  0  0  0
 12 27  1  0  0  0  0
  6 28  1  0  0  0  0
 28 29  2  0  0  0  0
 29  3  1  0  0  0  0
 27  9  1  0  0  0  0
 23 18  1  0  0  0  0
 26 21  1  0  0  0  0
M  END
>  <zinc_id>  (284) 
ZINC000013847904

>  <smiles>  (284) 
COc1ccc(CCc2nnc(NC(=O)COc3ccc4c(c3)OCO4)s2)cc1

>  <source_line>  (284) 
284

>  <source_data>  (284) 
ZINC000013847904

>  <source_name>  (284) 


>  <source_label>  (284) 
ZINC000013847904

>  <found_by>  (284) 
ZINC

> <Gold.Version>
5.8.1

> <Gold.Id.Protein>
ID|ID_protein|mol2

> <Gold.Goldscore.Fitness>
70.4240

> <Gold.Goldscore.Internal.Vdw>
1.0420

> <Gold.Goldscore.Internal.Torsion>
-7.6502

> <Gold.Goldscore.External.Vdw>
46.2269

> <Gold.Goldscore.Internal.HBond>
0.0000

> <Gold.Goldscore.External.HBond>
8.8320

> <Gold.Goldscore.Internal.Correction>
-4.6382

> <Gold.Goldscore.Hbonds>
donor molecule, donor type, donor heavy atom, donor atom, acceptor molecule, acceptor atom, score
      P1  H   441  4839       L1    11  1.00
      P1  H  1822  6079       L1     2  0.33
      P1  H  1916  6166       L1    10  0.09
      P1  H   103  4530       L1    26  1.00

> <Gold.Goldscore.Internal.Vdw.Weighted>
1.0420

> <Gold.Goldscore.Internal.Torsion.Weighted>
-7.6502

> <Gold.Goldscore.External.Vdw.Weighted>
63.5620

> <Gold.Goldscore.Internal.HBond.Weighted>
0.0000

> <Gold.Goldscore.External.HBond.Weighted>
8.8320

> <Gold.Goldscore.Internal.Correction.Weighted>
-4.6382

> <Gold.Protein.RotatedTorsions>
[ 4464  112  111  109 ] final   68.97 input   60.00 | X-H torsion
[ 4839  441  440  439 ] final -174.47 input   60.00 | X-H torsion
[ 4985  758  757  756 ] final  -77.68 input   60.00 | X-H torsion
[ 5271 1023 1022 1020 ] final -114.19 input   60.00 | X-H torsion
[ 6036 1776 1775 1774 ] final   64.15 input   60.00 | X-H torsion
[ 6078 1819 1818 1817 ] final   -6.88 input   60.00 | X-H torsion
[ 6166 1916 1915 1913 ] final  -79.51 input   60.00 | X-H torsion
[ 4818   65   64   63 ] final  152.78 input   60.00 | X-H torsion
[ 6268 1997 1996 1994 ] final  -27.51 input   60.00 | X-H torsion
[ 8592   72   71   70 ] final -145.71 input   60.00 | X-H torsion
[ 4356  100   99   97 ] final  -13.48 input   60.00 | X-H torsion
[ 8510  202  201  200 ] final  -21.59 input   60.00 | X-H torsion
[ 5330 1065 1064 1063 ] final  -93.36 input   60.00 | X-H torsion
[ 6640 2347 2346 2344 ] final  -48.49 input   60.00 | X-H torsion
[ 4452  380  379  378 ] final -160.82 input   60.00 | X-H torsion
[ 4500  391  390  389 ] final -142.08 input   60.00 | X-H torsion

> <Gold.Protein.ActiveResidues>
 THR8    THR9    PRO10   ILE11   TYR12   TYR13   VAL14   ASN15   ALA16   HIS19  
 HIS22   SER25   VAL29   MET46   THR47   GLY48   THR49   ASP50   GLU51   HIS52  
 GLY53   GLN54   LYS55   VAL56   ALA57   GLU58   THR71   PHE78   ILE93   THR95  
 THR96   HIS100  GLU101  VAL104  TRP108  TYR126  VAL128  SER129  ASP130  GLU131 
 SER132  LEU210  SER211  ILE212  SER213  ARG214  LYS215  ARG216  SER218  VAL219 
 MET220  ASN221  TRP222  SER223  ILE224  PRO225  VAL226  HIS232  CYS233  ILE234 
 TYR235  VAL236  TRP237  LEU238  ASP239  ALA240  LEU241  PHE242  ASN243  TYR244 
 TYR245  THR246  HIS275  VAL276  VAL277  GLY278  LYS279  ASP280  ILE281  LEU282 
 LYS283  PHE284  HIS285  ALA286  ILE287  TYR288  TRP289  PRO290  PHE292  LEU304 
 TRP309 

> <Gold.Protein.RotatedAtoms>
  -33.3106   -7.3376   -5.2534 H   0  0  0  0  0  0  0  0  0  0  0  0  # atno 4356 bound_to 100 
  -30.2963   -8.2339   -9.0458 H   0  0  0  0  0  0  0  0  0  0  0  0  # atno 4452 bound_to 380 
  -45.7812  -11.6883  -15.4152 H   0  0  0  0  0  0  0  0  0  0  0  0  # atno 4464 bound_to 112 
  -34.0901   -9.7327  -16.6503 H   0  0  0  0  0  0  0  0  0  0  0  0  # atno 4500 bound_to 391 
  -31.6834  -16.2436   -3.9214 H   0  0  0  0  0  0  0  0  0  0  0  0  # atno 4818 bound_to 65  
  -47.8848  -11.5752  -13.2259 H   0  0  0  0  0  0  0  0  0  0  0  0  # atno 4839 bound_to 441 
  -49.4276  -10.9765  -13.1334 H   0  0  0  0  0  0  0  0  0  0  0  0  # atno 4840 bound_to 441 
  -48.6635  -11.0752  -14.6010 H   0  0  0  0  0  0  0  0  0  0  0  0  # atno 4841 bound_to 441 
  -38.1767  -17.4677  -17.3754 H   0  0  0  0  0  0  0  0  0  0  0  0  # atno 4985 bound_to 758 
  -54.6592  -16.1169  -14.0930 H   0  0  0  0  0  0  0  0  0  0  0  0  # atno 5271 bound_to 1023
  -53.9600  -16.0404   -7.2008 H   0  0  0  0  0  0  0  0  0  0  0  0  # atno 5330 bound_to 1065
  -55.0518  -16.4965  -18.3163 H   0  0  0  0  0  0  0  0  0  0  0  0  # atno 6036 bound_to 1776
  -44.9410  -17.0292  -19.3692 H   0  0  0  0  0  0  0  0  0  0  0  0  # atno 6078 bound_to 1819
  -48.9224  -15.0464  -11.7039 H   0  0  0  0  0  0  0  0  0  0  0  0  # atno 6166 bound_to 1916
  -34.2929  -15.1151   -4.4686 H   0  0  0  0  0  0  0  0  0  0  0  0  # atno 6268 bound_to 1997
  -49.5653  -21.2356   -2.5591 H   0  0  0  0  0  0  0  0  0  0  0  0  # atno 6640 bound_to 2347
  -34.9192   -6.4963   -1.1847 H   0  0  0  0  0  0  0  0  0  0  0  0  # atno 8510 bound_to 202 
  -32.1466   -8.6245   -5.1138 H   0  0  0  0  0  0  0  0  0  0  0  0  # atno 8592 bound_to 72  
  -44.7178  -11.3145  -16.5888 LP  0  0  0  0  0  0  0  0  0  0  0  0  # atno 8618 bound_to 112 
  -45.9062  -10.2658  -16.1956 LP  0  0  0  0  0  0  0  0  0  0  0  0  # atno 8619 bound_to 112 
  -38.4837  -17.4759  -15.7773 LP  0  0  0  0  0  0  0  0  0  0  0  0  # atno 8637 bound_to 758 
  -37.1603  -18.2337  -16.3613 LP  0  0  0  0  0  0  0  0  0  0  0  0  # atno 8638 bound_to 758 
  -54.5916  -17.2331  -15.2753 LP  0  0  0  0  0  0  0  0  0  0  0  0  # atno 8642 bound_to 1023
  -54.2175  -17.6427  -13.7394 LP  0  0  0  0  0  0  0  0  0  0  0  0  # atno 8643 bound_to 1023
  -53.4300  -16.4366  -18.1969 LP  0  0  0  0  0  0  0  0  0  0  0  0  # atno 8662 bound_to 1776
  -54.2694  -17.5799  -17.3877 LP  0  0  0  0  0  0  0  0  0  0  0  0  # atno 8663 bound_to 1776
  -45.5069  -18.0052  -18.1965 LP  0  0  0  0  0  0  0  0  0  0  0  0  # atno 8672 bound_to 1819
  -46.4480  -17.6335  -19.4782 LP  0  0  0  0  0  0  0  0  0  0  0  0  # atno 8673 bound_to 1819
  -49.9039  -15.7340  -10.6031 LP  0  0  0  0  0  0  0  0  0  0  0  0  # atno 8684 bound_to 1916
  -50.4357  -15.4717  -12.1246 LP  0  0  0  0  0  0  0  0  0  0  0  0  # atno 8685 bound_to 1916
  -31.1057  -15.0787   -2.9429 LP  0  0  0  0  0  0  0  0  0  0  0  0  # atno 8712 bound_to 65  
  -30.4836  -16.5871   -2.8771 LP  0  0  0  0  0  0  0  0  0  0  0  0  # atno 8713 bound_to 65  
  -35.6237  -16.0328   -4.2824 LP  0  0  0  0  0  0  0  0  0  0  0  0  # atno 8724 bound_to 1997
  -35.3050  -15.3346   -5.7237 LP  0  0  0  0  0  0  0  0  0  0  0  0  # atno 8725 bound_to 1997
  -31.5303   -8.8796   -3.6295 LP  0  0  0  0  0  0  0  0  0  0  0  0  # atno 8747 bound_to 72  
  -32.8436   -9.7135   -4.1259 LP  0  0  0  0  0  0  0  0  0  0  0  0  # atno 8748 bound_to 72  
  -32.1536   -6.8383   -6.2830 LP  0  0  0  0  0  0  0  0  0  0  0  0  # atno 8749 bound_to 100 
  -32.4303   -8.4339   -6.0727 LP  0  0  0  0  0  0  0  0  0  0  0  0  # atno 8750 bound_to 100 
  -35.4825   -7.7136   -2.1061 LP  0  0  0  0  0  0  0  0  0  0  0  0  # atno 8754 bound_to 202 
  -35.4777   -6.1852   -2.6812 LP  0  0  0  0  0  0  0  0  0  0  0  0  # atno 8755 bound_to 202 
  -54.7062  -14.5943   -7.1845 LP  0  0  0  0  0  0  0  0  0  0  0  0  # atno 8775 bound_to 1065
  -54.0919  -15.1836   -8.5780 LP  0  0  0  0  0  0  0  0  0  0  0  0  # atno 8776 bound_to 1065
  -48.9930  -19.7331   -2.3078 LP  0  0  0  0  0  0  0  0  0  0  0  0  # atno 8779 bound_to 2347
  -49.1328  -20.7761   -1.0591 LP  0  0  0  0  0  0  0  0  0  0  0  0  # atno 8780 bound_to 2347
  -30.8774   -9.2589   -7.9235 LP  0  0  0  0  0  0  0  0  0  0  0  0  # atno 8787 bound_to 380 
  -31.1308   -9.5515   -9.5099 LP  0  0  0  0  0  0  0  0  0  0  0  0  # atno 8788 bound_to 380 

$$$$
