unknown|11k_best|sdf|8278|dock3
  -GOLD-   3 721 0413D 1   1.00000     0.00000

 28 30  0  0  0  0  0  0  0  0  1 V2000
  -50.9502  -16.1399   -9.3483 C   0  0  0  0  0  0  0  0  0  0  0  0
  -51.4111  -15.4744   -7.7208 S   0  0  0  0  0  0  0  0  0  0  0  0
  -49.9877  -15.5552   -6.6103 C   0  0  0  0  0  0  0  0  0  0  0  0
  -48.7094  -15.5963   -7.4135 C   0  0  0  0  0  0  0  0  0  0  0  0
  -48.1243  -14.2626   -7.4160 N   0  0  0  0  0  0  0  0  0  0  0  0
  -48.0279  -13.8420   -8.8104 C   0  0  0  0  0  0  0  0  0  0  0  0
  -46.6308  -14.2385   -9.2625 C   0  0  0  0  0  0  0  0  0  0  0  0
  -45.8506  -12.9349   -9.3876 C   0  0  0  0  0  0  0  0  0  0  0  0
  -46.4961  -12.2169  -10.4848 N   0  0  0  0  0  0  0  0  0  0  0  0
  -46.2253  -12.6570  -11.8173 C   0  0  0  0  0  0  0  0  0  0  0  0
  -44.9660  -12.5509  -12.3938 C   0  0  0  0  0  0  0  0  0  0  0  0
  -44.5800  -13.5212  -13.3077 C   0  0  0  0  0  0  0  0  0  0  0  0
  -45.4541  -14.5020  -13.7570 C   0  0  0  0  0  0  0  0  0  0  0  0
  -44.9946  -15.3630  -14.8066 N   0  0  0  0  0  0  0  0  0  0  0  0
  -45.8732  -16.3095  -15.3779 C   0  0  0  0  0  0  0  0  0  0  0  0
  -45.3401  -17.3047  -15.9473 O   0  0  0  0  0  0  0  0  0  0  0  0
  -47.3443  -16.3228  -15.1498 C   0  0  0  0  0  0  0  0  0  0  0  0
  -47.9210  -16.8098  -16.3586 O   0  0  0  0  0  0  0  0  0  0  0  0
  -49.3128  -16.7074  -16.4466 C   0  0  0  0  0  0  0  0  0  0  0  0
  -49.8325  -15.4458  -16.1841 C   0  0  0  0  0  0  0  0  0  0  0  0
  -51.1911  -15.3070  -16.2982 C   0  0  0  0  0  0  0  0  0  0  0  0
  -51.8006  -16.0218  -17.3223 C   0  0  0  0  0  0  0  0  0  0  0  0
  -51.1584  -17.0942  -17.8988 C   0  0  0  0  0  0  0  0  0  0  0  0
  -49.9646  -17.5315  -17.3408 C   0  0  0  0  0  0  0  0  0  0  0  0
  -46.8042  -14.2210  -13.5857 C   0  0  0  0  0  0  0  0  0  0  0  0
  -47.1663  -13.3436  -12.5722 C   0  0  0  0  0  0  0  0  0  0  0  0
  -47.8525  -11.7561  -10.1955 C   0  0  0  0  0  0  0  0  0  0  0  0
  -48.2401  -12.3524   -8.8493 C   0  0  0  0  0  0  0  0  0  0  0  0
  1  2  1  0  0  0  0
  2  3  1  0  0  0  0
  3  4  1  0  0  0  0
  4  5  1  0  0  0  0
  5  6  1  0  0  0  0
  6  7  1  0  0  0  0
  7  8  1  0  0  0  0
  8  9  1  0  0  0  0
  9 10  1  0  0  0  0
 10 11  2  0  0  0  0
 11 12  1  0  0  0  0
 12 13  2  0  0  0  0
 13 14  1  0  0  0  0
 14 15  1  0  0  0  0
 15 16  2  0  0  0  0
 15 17  1  0  0  0  0
 17 18  1  0  0  0  0
 18 19  1  0  0  0  0
 19 20  2  0  0  0  0
 20 21  1  0  0  0  0
 21 22  2  0  0  0  0
 22 23  1  0  0  0  0
 23 24  2  0  0  0  0
 13 25  1  0  0  0  0
 25 26  2  0  0  0  0
  9 27  1  0  0  0  0
 27 28  1  0  0  0  0
 28  6  1  0  0  0  0
 26 10  1  0  0  0  0
 24 19  1  0  0  0  0
M  END
>  <zinc_id>  (278) 
ZINC000011909547

>  <smiles>  (278) 
CSCCNC1CCN(c2ccc(NC(=O)COc3ccccc3)cc2)CC1

>  <source_line>  (278) 
278

>  <source_data>  (278) 
ZINC000011909547

>  <source_name>  (278) 


>  <source_label>  (278) 
ZINC000011909547

>  <found_by>  (278) 
ZINC

> <Gold.Version>
5.8.1

> <Gold.Id.Protein>
ID|ID_protein|mol2

> <Gold.Goldscore.Fitness>
55.4124

> <Gold.Goldscore.Internal.Vdw>
1.4438

> <Gold.Goldscore.Internal.Torsion>
-9.8264

> <Gold.Goldscore.External.Vdw>
44.7521

> <Gold.Goldscore.Internal.HBond>
0.0000

> <Gold.Goldscore.External.HBond>
0.2453

> <Gold.Goldscore.Internal.Correction>
-2.0154

> <Gold.Goldscore.Hbonds>
donor molecule, donor type, donor heavy atom, donor atom, acceptor molecule, acceptor atom, score
      P1  H   441  4839       L1     9  0.02
      P1  H  1819  6078       L1    16  0.05

> <Gold.Goldscore.Internal.Vdw.Weighted>
1.4438

> <Gold.Goldscore.Internal.Torsion.Weighted>
-9.8264

> <Gold.Goldscore.External.Vdw.Weighted>
61.5342

> <Gold.Goldscore.Internal.HBond.Weighted>
0.0000

> <Gold.Goldscore.External.HBond.Weighted>
0.2453

> <Gold.Goldscore.Internal.Correction.Weighted>
-2.0154

> <Gold.Protein.RotatedTorsions>
[ 4464  112  111  109 ] final   11.44 input   60.00 | X-H torsion
[ 4839  441  440  439 ] final -142.20 input   60.00 | X-H torsion
[ 4985  758  757  756 ] final   85.86 input   60.00 | X-H torsion
[ 5271 1023 1022 1020 ] final  145.88 input   60.00 | X-H torsion
[ 6036 1776 1775 1774 ] final  154.33 input   60.00 | X-H torsion
[ 6078 1819 1818 1817 ] final -118.85 input   60.00 | X-H torsion
[ 6166 1916 1915 1913 ] final  -26.39 input   60.00 | X-H torsion
[ 4818   65   64   63 ] final  146.34 input   60.00 | X-H torsion
[ 6268 1997 1996 1994 ] final  121.49 input   60.00 | X-H torsion
[ 8592   72   71   70 ] final  160.53 input   60.00 | X-H torsion
[ 4356  100   99   97 ] final -169.71 input   60.00 | X-H torsion
[ 8510  202  201  200 ] final  145.16 input   60.00 | X-H torsion
[ 5330 1065 1064 1063 ] final   66.14 input   60.00 | X-H torsion
[ 6640 2347 2346 2344 ] final  -54.97 input   60.00 | X-H torsion
[ 4452  380  379  378 ] final  114.10 input   60.00 | X-H torsion
[ 4500  391  390  389 ] final  111.39 input   60.00 | X-H torsion

> <Gold.Protein.ActiveResidues>
 THR8    THR9    PRO10   ILE11   TYR12   TYR13   VAL14   ASN15   ALA16   HIS19  
 HIS22   SER25   VAL29   MET46   THR47   GLY48   THR49   ASP50   GLU51   HIS52  
 GLY53   GLN54   LYS55   VAL56   ALA57   GLU58   THR71   PHE78   ILE93   THR95  
 THR96   HIS100  GLU101  VAL104  TRP108  TYR126  VAL128  SER129  ASP130  GLU131 
 SER132  LEU210  SER211  ILE212  SER213  ARG214  LYS215  ARG216  SER218  VAL219 
 MET220  ASN221  TRP222  SER223  ILE224  PRO225  VAL226  HIS232  CYS233  ILE234 
 TYR235  VAL236  TRP237  LEU238  ASP239  ALA240  LEU241  PHE242  ASN243  TYR244 
 TYR245  THR246  HIS275  VAL276  VAL277  GLY278  LYS279  ASP280  ILE281  LEU282 
 LYS283  PHE284  HIS285  ALA286  ILE287  TYR288  TRP289  PRO290  PHE292  LEU304 
 TRP309 

> <Gold.Protein.RotatedAtoms>
  -31.9511   -7.3490   -6.4818 H   0  0  0  0  0  0  0  0  0  0  0  0  # atno 4356 bound_to 100 
  -30.5807   -8.7797   -7.9396 H   0  0  0  0  0  0  0  0  0  0  0  0  # atno 4452 bound_to 380 
  -45.0614  -11.9185  -15.9059 H   0  0  0  0  0  0  0  0  0  0  0  0  # atno 4464 bound_to 112 
  -35.3445  -10.5445  -16.7884 H   0  0  0  0  0  0  0  0  0  0  0  0  # atno 4500 bound_to 391 
  -31.7197  -16.1448   -3.9214 H   0  0  0  0  0  0  0  0  0  0  0  0  # atno 4818 bound_to 65  
  -48.2398  -11.4882  -12.8396 H   0  0  0  0  0  0  0  0  0  0  0  0  # atno 4839 bound_to 441 
  -49.5489  -10.8583  -13.6375 H   0  0  0  0  0  0  0  0  0  0  0  0  # atno 4840 bound_to 441 
  -48.1872  -11.2803  -14.4831 H   0  0  0  0  0  0  0  0  0  0  0  0  # atno 4841 bound_to 441 
  -37.4980  -18.0926  -15.7682 H   0  0  0  0  0  0  0  0  0  0  0  0  # atno 4985 bound_to 758 
  -54.6736  -16.9161  -15.2832 H   0  0  0  0  0  0  0  0  0  0  0  0  # atno 5271 bound_to 1023
  -54.4048  -14.6769   -8.3576 H   0  0  0  0  0  0  0  0  0  0  0  0  # atno 5330 bound_to 1065
  -54.7309  -17.4944  -17.5040 H   0  0  0  0  0  0  0  0  0  0  0  0  # atno 6036 bound_to 1776
  -45.3870  -17.9506  -18.2027 H   0  0  0  0  0  0  0  0  0  0  0  0  # atno 6078 bound_to 1819
  -49.4980  -15.0747  -12.3114 H   0  0  0  0  0  0  0  0  0  0  0  0  # atno 6166 bound_to 1916
  -35.6443  -15.6136   -5.5552 H   0  0  0  0  0  0  0  0  0  0  0  0  # atno 6268 bound_to 1997
  -49.5541  -21.1640   -2.6361 H   0  0  0  0  0  0  0  0  0  0  0  0  # atno 6640 bound_to 2347
  -35.6518   -6.8906   -2.8481 H   0  0  0  0  0  0  0  0  0  0  0  0  # atno 8510 bound_to 202 
  -31.5498   -8.4221   -4.5484 H   0  0  0  0  0  0  0  0  0  0  0  0  # atno 8592 bound_to 72  
  -45.1252  -10.5156  -16.7280 LP  0  0  0  0  0  0  0  0  0  0  0  0  # atno 8618 bound_to 112 
  -46.2238  -10.8328  -15.5622 LP  0  0  0  0  0  0  0  0  0  0  0  0  # atno 8619 bound_to 112 
  -37.5876  -17.8402  -17.3733 LP  0  0  0  0  0  0  0  0  0  0  0  0  # atno 8637 bound_to 758 
  -38.7398  -17.2401  -16.3839 LP  0  0  0  0  0  0  0  0  0  0  0  0  # atno 8638 bound_to 758 
  -54.2208  -17.8259  -14.0121 LP  0  0  0  0  0  0  0  0  0  0  0  0  # atno 8642 bound_to 1023
  -54.5737  -16.2451  -13.8040 LP  0  0  0  0  0  0  0  0  0  0  0  0  # atno 8643 bound_to 1023
  -54.7100  -16.2099  -18.5029 LP  0  0  0  0  0  0  0  0  0  0  0  0  # atno 8662 bound_to 1776
  -53.3126  -16.8016  -17.8998 LP  0  0  0  0  0  0  0  0  0  0  0  0  # atno 8663 bound_to 1776
  -46.4859  -17.7119  -19.3789 LP  0  0  0  0  0  0  0  0  0  0  0  0  # atno 8672 bound_to 1819
  -45.0197  -16.9988  -19.4705 LP  0  0  0  0  0  0  0  0  0  0  0  0  # atno 8673 bound_to 1819
  -49.1420  -15.4080  -10.7590 LP  0  0  0  0  0  0  0  0  0  0  0  0  # atno 8684 bound_to 1916
  -50.6181  -15.7691  -11.3569 LP  0  0  0  0  0  0  0  0  0  0  0  0  # atno 8685 bound_to 1916
  -31.0275  -15.1064   -2.8770 LP  0  0  0  0  0  0  0  0  0  0  0  0  # atno 8712 bound_to 65  
  -30.5252  -16.6588   -2.9430 LP  0  0  0  0  0  0  0  0  0  0  0  0  # atno 8713 bound_to 65  
  -34.2976  -14.9630   -4.9138 LP  0  0  0  0  0  0  0  0  0  0  0  0  # atno 8724 bound_to 1997
  -35.2700  -15.9024   -3.9981 LP  0  0  0  0  0  0  0  0  0  0  0  0  # atno 8725 bound_to 1997
  -32.1175   -9.4673   -3.4378 LP  0  0  0  0  0  0  0  0  0  0  0  0  # atno 8747 bound_to 72  
  -32.8573   -9.3297   -4.8870 LP  0  0  0  0  0  0  0  0  0  0  0  0  # atno 8748 bound_to 72  
  -32.8653   -8.4302   -5.6797 LP  0  0  0  0  0  0  0  0  0  0  0  0  # atno 8749 bound_to 100 
  -33.0877   -6.8305   -5.4390 LP  0  0  0  0  0  0  0  0  0  0  0  0  # atno 8750 bound_to 100 
  -35.0346   -5.9467   -1.6751 LP  0  0  0  0  0  0  0  0  0  0  0  0  # atno 8754 bound_to 202 
  -35.1878   -7.5550   -1.4370 LP  0  0  0  0  0  0  0  0  0  0  0  0  # atno 8755 bound_to 202 
  -53.7978  -16.0852   -7.8131 LP  0  0  0  0  0  0  0  0  0  0  0  0  # atno 8775 bound_to 1065
  -54.5524  -15.0658   -6.7844 LP  0  0  0  0  0  0  0  0  0  0  0  0  # atno 8776 bound_to 1065
  -48.9661  -19.7084   -2.2078 LP  0  0  0  0  0  0  0  0  0  0  0  0  # atno 8779 bound_to 2347
  -49.1710  -20.8729   -1.0815 LP  0  0  0  0  0  0  0  0  0  0  0  0  # atno 8780 bound_to 2347
  -31.2579   -9.7955   -9.0155 LP  0  0  0  0  0  0  0  0  0  0  0  0  # atno 8787 bound_to 380 
  -30.4639   -8.4653   -9.5319 LP  0  0  0  0  0  0  0  0  0  0  0  0  # atno 8788 bound_to 380 

$$$$
