unknown|11k_best|sdf|8237|dock7
  -GOLD-   3 62123533D 1   1.00000     0.00000

 31 33  0  0  0  0  0  0  0  0  1 V2000
  -48.2644  -15.0748   -6.5092 C   0  0  0  0  0  0  0  0  0  0  0  0
  -47.5562  -14.4480   -6.3039 C   0  0  0  0  0  0  0  0  0  0  0  0
  -46.5646  -14.4532   -7.6644 C   0  0  2  0  0  0  0  0  0  0  0  0
  -45.3047  -14.1534   -6.7768 O   0  0  0  0  0  0  0  0  0  0  0  0
  -44.2220  -14.9633   -7.1007 C   0  0  0  0  0  0  0  0  0  0  0  0
  -44.3745  -16.1939   -7.6945 C   0  0  0  0  0  0  0  0  0  0  0  0
  -43.2948  -17.0575   -7.7374 C   0  0  0  0  0  0  0  0  0  0  0  0
  -42.2763  -16.9364   -6.8082 C   0  0  0  0  0  0  0  0  0  0  0  0
  -42.1956  -15.7858   -6.0344 C   0  0  0  0  0  0  0  0  0  0  0  0
  -41.4022  -15.8086   -4.7655 C   0  0  0  0  0  0  0  0  0  0  0  0
  -43.0772  -14.7672   -6.3463 C   0  0  0  0  0  0  0  0  0  0  0  0
  -46.8142  -12.8410   -7.9311 C   0  0  0  0  0  0  0  0  0  0  0  0
  -46.6821  -12.2471   -6.8126 O   0  0  0  0  0  0  0  0  0  0  0  0
  -45.9077  -12.3412   -8.9294 N   0  0  0  0  0  0  0  0  0  0  0  0
  -46.0896  -12.8507  -10.2568 C   0  0  0  0  0  0  0  0  0  0  0  0
  -45.2430  -12.3134  -11.2135 C   0  0  0  0  0  0  0  0  0  0  0  0
  -45.5472  -12.4412  -12.5592 C   0  0  0  0  0  0  0  0  0  0  0  0
  -46.6942  -13.1083  -12.8821 C   0  0  0  0  0  0  0  0  0  0  0  0
  -46.9659  -13.7528  -14.4927 S   0  0  0  0  0  0  0  0  0  0  0  0
  -47.2704  -12.6188  -15.4339 O   0  0  0  0  0  0  0  0  0  0  0  0
  -48.1296  -14.6805  -14.4051 O   0  0  0  0  0  0  0  0  0  0  0  0
  -45.5326  -14.5964  -14.9490 N   0  0  0  0  0  0  0  0  0  0  0  0
  -45.6530  -15.9879  -15.2326 C   0  0  0  0  0  0  0  0  0  0  0  0
  -46.8269  -16.5892  -15.4751 N   0  0  0  0  0  0  0  0  0  0  0  0
  -46.8831  -17.7882  -16.0840 C   0  0  0  0  0  0  0  0  0  0  0  0
  -45.7029  -18.3929  -16.4315 C   0  0  0  0  0  0  0  0  0  0  0  0
  -44.5122  -17.9126  -15.9318 C   0  0  0  0  0  0  0  0  0  0  0  0
  -43.2264  -18.4976  -16.3864 C   0  0  0  0  0  0  0  0  0  0  0  0
  -44.5217  -16.6953  -15.3482 N   0  0  0  0  0  0  0  0  0  0  0  0
  -47.6664  -13.3439  -11.9477 C   0  0  0  0  0  0  0  0  0  0  0  0
  -47.4014  -13.1105  -10.6065 C   0  0  0  0  0  0  0  0  0  0  0  0
  1  2  1  0  0  0  0
  3  2  1  0  0  0  0
  3  4  1  0  0  0  0
  4  5  1  0  0  0  0
  5  6  2  0  0  0  0
  6  7  1  0  0  0  0
  7  8  2  0  0  0  0
  8  9  1  0  0  0  0
  9 10  1  0  0  0  0
  9 11  2  0  0  0  0
  3 12  1  0  0  0  0
 12 13  2  0  0  0  0
 12 14  1  0  0  0  0
 14 15  1  0  0  0  0
 15 16  2  0  0  0  0
 16 17  1  0  0  0  0
 17 18  2  0  0  0  0
 18 19  1  0  0  0  0
 19 20  2  0  0  0  0
 19 21  2  0  0  0  0
 19 22  1  0  0  0  0
 22 23  1  0  0  0  0
 23 24  2  0  0  0  0
 24 25  1  0  0  0  0
 25 26  2  0  0  0  0
 26 27  1  0  0  0  0
 27 28  1  0  0  0  0
 27 29  2  0  0  0  0
 18 30  1  0  0  0  0
 30 31  2  0  0  0  0
 11  5  1  0  0  0  0
 31 15  1  0  0  0  0
 29 23  1  0  0  0  0
M  END
>  <zinc_id>  (237) 
ZINC000216283559

>  <smiles>  (237) 
CC[C@H](Oc1cccc(C)c1)C(=O)Nc1ccc(S(=O)(=O)Nc2nccc(C)n2)cc1

>  <source_line>  (237) 
237

>  <source_data>  (237) 
ZINC000216283559

>  <source_name>  (237) 


>  <source_label>  (237) 
ZINC000216283559

>  <found_by>  (237) 
ZINC

> <Gold.Version>
5.8.1

> <Gold.Id.Protein>
ID|ID_protein|mol2

> <Gold.Goldscore.Fitness>
67.4923

> <Gold.Goldscore.Internal.Vdw>
-1.3958

> <Gold.Goldscore.Internal.Torsion>
-22.7625

> <Gold.Goldscore.External.Vdw>
50.2954

> <Gold.Goldscore.Internal.HBond>
0.0000

> <Gold.Goldscore.External.HBond>
7.9483

> <Gold.Goldscore.Internal.Correction>
-14.5461

> <Gold.Goldscore.Hbonds>
donor molecule, donor type, donor heavy atom, donor atom, acceptor molecule, acceptor atom, score
      P1  H   112  4464       L1    22  0.22
      P1  H   435  4829       L1    20  0.30
      P1  H   441  4840       L1    20  1.00

> <Gold.Goldscore.Internal.Vdw.Weighted>
-1.3958

> <Gold.Goldscore.Internal.Torsion.Weighted>
-22.7625

> <Gold.Goldscore.External.Vdw.Weighted>
69.1562

> <Gold.Goldscore.Internal.HBond.Weighted>
0.0000

> <Gold.Goldscore.External.HBond.Weighted>
7.9483

> <Gold.Goldscore.Internal.Correction.Weighted>
-14.5461

> <Gold.Protein.RotatedTorsions>
[ 4464  112  111  109 ] final   35.56 input   60.00 | X-H torsion
[ 4839  441  440  439 ] final   -5.42 input   60.00 | X-H torsion
[ 4985  758  757  756 ] final  102.19 input   60.00 | X-H torsion
[ 5271 1023 1022 1020 ] final   18.41 input   60.00 | X-H torsion
[ 6036 1776 1775 1774 ] final  -36.20 input   60.00 | X-H torsion
[ 6078 1819 1818 1817 ] final  -58.01 input   60.00 | X-H torsion
[ 6166 1916 1915 1913 ] final   30.76 input   60.00 | X-H torsion
[ 4818   65   64   63 ] final  141.43 input   60.00 | X-H torsion
[ 6268 1997 1996 1994 ] final   83.91 input   60.00 | X-H torsion
[ 8592   72   71   70 ] final  156.47 input   60.00 | X-H torsion
[ 4356  100   99   97 ] final -127.92 input   60.00 | X-H torsion
[ 8510  202  201  200 ] final   99.93 input   60.00 | X-H torsion
[ 5330 1065 1064 1063 ] final -161.59 input   60.00 | X-H torsion
[ 6640 2347 2346 2344 ] final -170.99 input   60.00 | X-H torsion
[ 4452  380  379  378 ] final  -33.01 input   60.00 | X-H torsion
[ 4500  391  390  389 ] final   70.50 input   60.00 | X-H torsion

> <Gold.Protein.ActiveResidues>
 THR8    THR9    PRO10   ILE11   TYR12   TYR13   VAL14   ASN15   ALA16   HIS19  
 HIS22   SER25   VAL29   MET46   THR47   GLY48   THR49   ASP50   GLU51   HIS52  
 GLY53   GLN54   LYS55   VAL56   ALA57   GLU58   THR71   PHE78   ILE93   THR95  
 THR96   HIS100  GLU101  VAL104  TRP108  TYR126  VAL128  SER129  ASP130  GLU131 
 SER132  LEU210  SER211  ILE212  SER213  ARG214  LYS215  ARG216  SER218  VAL219 
 MET220  ASN221  TRP222  SER223  ILE224  PRO225  VAL226  HIS232  CYS233  ILE234 
 TYR235  VAL236  TRP237  LEU238  ASP239  ALA240  LEU241  PHE242  ASN243  TYR244 
 TYR245  THR246  HIS275  VAL276  VAL277  GLY278  LYS279  ASP280  ILE281  LEU282 
 LYS283  PHE284  HIS285  ALA286  ILE287  TYR288  TRP289  PRO290  PHE292  LEU304 
 TRP309 

> <Gold.Protein.RotatedAtoms>
  -32.2099   -6.7854   -6.2340 H   0  0  0  0  0  0  0  0  0  0  0  0  # atno 4356 bound_to 100 
  -31.1682   -9.6244   -9.4114 H   0  0  0  0  0  0  0  0  0  0  0  0  # atno 4452 bound_to 380 
  -45.3543  -11.9205  -15.6466 H   0  0  0  0  0  0  0  0  0  0  0  0  # atno 4464 bound_to 112 
  -35.2477  -11.0918  -16.4436 H   0  0  0  0  0  0  0  0  0  0  0  0  # atno 4500 bound_to 391 
  -31.7420  -16.0680   -3.9157 H   0  0  0  0  0  0  0  0  0  0  0  0  # atno 4818 bound_to 65  
  -49.5023  -10.8386  -13.9121 H   0  0  0  0  0  0  0  0  0  0  0  0  # atno 4839 bound_to 441 
  -47.9891  -11.3822  -14.3149 H   0  0  0  0  0  0  0  0  0  0  0  0  # atno 4840 bound_to 441 
  -48.4846  -11.4060  -12.7333 H   0  0  0  0  0  0  0  0  0  0  0  0  # atno 4841 bound_to 441 
  -37.7015  -17.9811  -15.6385 H   0  0  0  0  0  0  0  0  0  0  0  0  # atno 4985 bound_to 758 
  -54.2198  -17.7637  -13.9065 H   0  0  0  0  0  0  0  0  0  0  0  0  # atno 5271 bound_to 1023
  -54.4717  -15.2452   -6.7437 H   0  0  0  0  0  0  0  0  0  0  0  0  # atno 5330 bound_to 1065
  -53.6350  -16.2543  -18.3631 H   0  0  0  0  0  0  0  0  0  0  0  0  # atno 6036 bound_to 1776
  -44.7774  -17.3913  -18.6657 H   0  0  0  0  0  0  0  0  0  0  0  0  # atno 6078 bound_to 1819
  -50.3249  -15.4056  -12.2182 H   0  0  0  0  0  0  0  0  0  0  0  0  # atno 6166 bound_to 1916
  -35.1854  -15.2604   -5.7237 H   0  0  0  0  0  0  0  0  0  0  0  0  # atno 6268 bound_to 1997
  -48.9818  -19.7291   -2.2680 H   0  0  0  0  0  0  0  0  0  0  0  0  # atno 6640 bound_to 2347
  -35.4827   -6.2086   -2.6910 H   0  0  0  0  0  0  0  0  0  0  0  0  # atno 8510 bound_to 202 
  -31.5214   -8.4293   -4.4890 H   0  0  0  0  0  0  0  0  0  0  0  0  # atno 8592 bound_to 72  
  -44.8806  -10.8237  -16.7514 LP  0  0  0  0  0  0  0  0  0  0  0  0  # atno 8618 bound_to 112 
  -46.1733  -10.5227  -15.8000 LP  0  0  0  0  0  0  0  0  0  0  0  0  # atno 8619 bound_to 112 
  -37.4000  -17.9747  -17.2376 LP  0  0  0  0  0  0  0  0  0  0  0  0  # atno 8637 bound_to 758 
  -38.7225  -17.2180  -16.6501 LP  0  0  0  0  0  0  0  0  0  0  0  0  # atno 8638 bound_to 758 
  -54.6069  -16.1831  -13.9047 LP  0  0  0  0  0  0  0  0  0  0  0  0  # atno 8642 bound_to 1023
  -54.6446  -17.0343  -15.2978 LP  0  0  0  0  0  0  0  0  0  0  0  0  # atno 8643 bound_to 1023
  -53.9524  -17.5257  -17.3982 LP  0  0  0  0  0  0  0  0  0  0  0  0  # atno 8662 bound_to 1776
  -55.1737  -16.7346  -18.1394 LP  0  0  0  0  0  0  0  0  0  0  0  0  # atno 8663 bound_to 1776
  -46.2321  -18.1113  -18.5497 LP  0  0  0  0  0  0  0  0  0  0  0  0  # atno 8672 bound_to 1819
  -45.8874  -17.1627  -19.8334 LP  0  0  0  0  0  0  0  0  0  0  0  0  # atno 8673 bound_to 1819
  -48.8775  -15.0726  -11.5532 LP  0  0  0  0  0  0  0  0  0  0  0  0  # atno 8684 bound_to 1916
  -50.0498  -15.7713  -10.6566 LP  0  0  0  0  0  0  0  0  0  0  0  0  # atno 8685 bound_to 1916
  -30.9684  -15.1349   -2.8298 LP  0  0  0  0  0  0  0  0  0  0  0  0  # atno 8712 bound_to 65  
  -30.5618  -16.7077   -2.9959 LP  0  0  0  0  0  0  0  0  0  0  0  0  # atno 8713 bound_to 65  
  -34.3248  -15.1750   -4.3453 LP  0  0  0  0  0  0  0  0  0  0  0  0  # atno 8724 bound_to 1997
  -35.7050  -16.0461   -4.3968 LP  0  0  0  0  0  0  0  0  0  0  0  0  # atno 8725 bound_to 1997
  -32.1711   -9.5036   -3.4537 LP  0  0  0  0  0  0  0  0  0  0  0  0  # atno 8747 bound_to 72  
  -32.8323   -9.2861   -4.9309 LP  0  0  0  0  0  0  0  0  0  0  0  0  # atno 8748 bound_to 72  
  -32.3663   -8.4018   -6.1297 LP  0  0  0  0  0  0  0  0  0  0  0  0  # atno 8749 bound_to 100 
  -33.3261   -7.4265   -5.2385 LP  0  0  0  0  0  0  0  0  0  0  0  0  # atno 8750 bound_to 100 
  -34.9188   -6.4706   -1.1872 LP  0  0  0  0  0  0  0  0  0  0  0  0  # atno 8754 bound_to 202 
  -35.4738   -7.7180   -2.0831 LP  0  0  0  0  0  0  0  0  0  0  0  0  # atno 8755 bound_to 202 
  -54.4929  -14.5604   -8.2198 LP  0  0  0  0  0  0  0  0  0  0  0  0  # atno 8775 bound_to 1065
  -53.7899  -16.0183   -8.0029 LP  0  0  0  0  0  0  0  0  0  0  0  0  # atno 8776 bound_to 1065
  -49.1474  -20.8138   -1.0664 LP  0  0  0  0  0  0  0  0  0  0  0  0  # atno 8779 bound_to 2347
  -49.5660  -21.2126   -2.5936 LP  0  0  0  0  0  0  0  0  0  0  0  0  # atno 8780 bound_to 2347
  -30.3193   -8.2574   -9.1696 LP  0  0  0  0  0  0  0  0  0  0  0  0  # atno 8787 bound_to 380 
  -30.8109   -9.1528   -7.8955 LP  0  0  0  0  0  0  0  0  0  0  0  0  # atno 8788 bound_to 380 

$$$$
