unknown|11k_best|sdf|8280|dock6
  -GOLD-   3 721 0433D 1   1.00000     0.00000

 31 33  0  0  0  0  0  0  0  0  1 V2000
  -42.8176   -3.6485   -9.0564 C   0  0  0  0  0  0  0  0  0  0  0  0
  -42.9758   -4.2369  -10.4312 C   0  0  0  0  0  0  0  0  0  0  0  0
  -43.4132   -5.6759  -10.3996 C   0  0  0  0  0  0  0  0  0  0  0  0
  -44.8708   -5.8151  -10.0541 C   0  0  0  0  0  0  0  0  0  0  0  0
  -45.2836   -7.1483  -10.2110 O   0  0  0  0  0  0  0  0  0  0  0  0
  -44.8565   -8.2002   -9.4252 C   0  0  0  0  0  0  0  0  0  0  0  0
  -44.0479   -7.9064   -8.4933 O   0  0  0  0  0  0  0  0  0  0  0  0
  -44.8431   -9.5828   -9.9211 C   0  0  0  0  0  0  0  0  0  0  0  0
  -45.8651  -10.0647  -10.7292 C   0  0  0  0  0  0  0  0  0  0  0  0
  -45.5338  -10.9290  -11.7639 C   0  0  0  0  0  0  0  0  0  0  0  0
  -44.5452  -11.8773  -11.5342 C   0  0  0  0  0  0  0  0  0  0  0  0
  -44.3888  -13.0195  -12.3843 N   0  0  0  0  0  0  0  0  0  0  0  0
  -45.5608  -13.4681  -13.0720 C   0  0  0  0  0  0  0  0  0  0  0  0
  -46.5636  -12.6958  -12.9864 O   0  0  0  0  0  0  0  0  0  0  0  0
  -45.4864  -14.2573  -14.3064 C   0  0  0  0  0  0  0  0  0  0  0  0
  -46.6062  -14.8392  -14.8784 C   0  0  0  0  0  0  0  0  0  0  0  0
  -47.8029  -14.1541  -14.7127 O   0  0  0  0  0  0  0  0  0  0  0  0
  -46.5653  -16.0546  -15.4759 N   0  0  0  0  0  0  0  0  0  0  0  0
  -47.8003  -16.8203  -15.6216 C   0  0  0  0  0  0  0  0  0  0  0  0
  -48.4507  -16.6030  -16.9592 C   0  0  0  0  0  0  0  0  0  0  0  0
  -49.5302  -15.5477  -16.7589 C   0  0  0  0  0  0  0  0  0  0  0  0
  -45.4015  -16.7435  -15.5577 C   0  0  0  0  0  0  0  0  0  0  0  0
  -45.3914  -18.1257  -15.6993 C   0  0  0  0  0  0  0  0  0  0  0  0
  -44.2616  -18.8590  -15.3607 C   0  0  0  0  0  0  0  0  0  0  0  0
  -43.0481  -18.2115  -15.4808 C   0  0  0  0  0  0  0  0  0  0  0  0
  -43.0491  -16.8327  -15.3180 C   0  0  0  0  0  0  0  0  0  0  0  0
  -44.2110  -16.1060  -15.2320 C   0  0  0  0  0  0  0  0  0  0  0  0
  -44.2775  -14.8790  -14.5829 C   0  0  0  0  0  0  0  0  0  0  0  0
  -43.2044  -14.4043  -14.1212 O   0  0  0  0  0  0  0  0  0  0  0  0
  -43.5876  -11.5300  -10.5977 C   0  0  0  0  0  0  0  0  0  0  0  0
  -43.7149  -10.3723   -9.8396 C   0  0  0  0  0  0  0  0  0  0  0  0
  1  2  1  0  0  0  0
  2  3  1  0  0  0  0
  3  4  1  0  0  0  0
  4  5  1  0  0  0  0
  5  6  1  0  0  0  0
  6  7  2  0  0  0  0
  6  8  1  0  0  0  0
  8  9  2  0  0  0  0
  9 10  1  0  0  0  0
 10 11  2  0  0  0  0
 11 12  1  0  0  0  0
 12 13  1  0  0  0  0
 13 14  2  0  0  0  0
 13 15  1  0  0  0  0
 15 16  2  0  0  0  0
 16 17  1  0  0  0  0
 16 18  1  0  0  0  0
 18 19  1  0  0  0  0
 19 20  1  0  0  0  0
 20 21  1  0  0  0  0
 18 22  1  0  0  0  0
 22 23  2  0  0  0  0
 23 24  1  0  0  0  0
 24 25  2  0  0  0  0
 25 26  1  0  0  0  0
 26 27  2  0  0  0  0
 27 28  1  0  0  0  0
 28 29  2  0  0  0  0
 11 30  1  0  0  0  0
 30 31  2  0  0  0  0
 31  8  1  0  0  0  0
 28 15  1  0  0  0  0
 27 22  1  0  0  0  0
M  END
>  <zinc_id>  (280) 
ZINC000005736894

>  <smiles>  (280) 
CCCCOC(=O)c1ccc(NC(=O)c2c(O)n(CCC)c3ccccc3c2=O)cc1

>  <source_line>  (280) 
280

>  <source_data>  (280) 
ZINC000005736894

>  <source_name>  (280) 


>  <source_label>  (280) 
ZINC000005736894

>  <found_by>  (280) 
ZINC

> <Gold.Version>
5.8.1

> <Gold.Id.Protein>
ID|ID_protein|mol2

> <Gold.Goldscore.Fitness>
67.8873

> <Gold.Goldscore.Internal.Vdw>
-1.5875

> <Gold.Goldscore.Internal.Torsion>
-9.5794

> <Gold.Goldscore.External.Vdw>
48.4948

> <Gold.Goldscore.Internal.HBond>
0.0000

> <Gold.Goldscore.External.HBond>
6.4270

> <Gold.Goldscore.Internal.Correction>
-5.9469

> <Gold.Goldscore.Hbonds>
donor molecule, donor type, donor heavy atom, donor atom, acceptor molecule, acceptor atom, score
      P1  H   441  4839       L1    14  1.00
      P1  H  1916  6166       L1    17  0.07

> <Gold.Goldscore.Internal.Vdw.Weighted>
-1.5875

> <Gold.Goldscore.Internal.Torsion.Weighted>
-9.5794

> <Gold.Goldscore.External.Vdw.Weighted>
66.6803

> <Gold.Goldscore.Internal.HBond.Weighted>
0.0000

> <Gold.Goldscore.External.HBond.Weighted>
6.4270

> <Gold.Goldscore.Internal.Correction.Weighted>
-5.9469

> <Gold.Protein.RotatedTorsions>
[ 4464  112  111  109 ] final  122.55 input   60.00 | X-H torsion
[ 4839  441  440  439 ] final  177.91 input   60.00 | X-H torsion
[ 4985  758  757  756 ] final -172.79 input   60.00 | X-H torsion
[ 5271 1023 1022 1020 ] final -112.92 input   60.00 | X-H torsion
[ 6036 1776 1775 1774 ] final  135.47 input   60.00 | X-H torsion
[ 6078 1819 1818 1817 ] final  -20.25 input   60.00 | X-H torsion
[ 6166 1916 1915 1913 ] final  -36.80 input   60.00 | X-H torsion
[ 4818   65   64   63 ] final   98.08 input   60.00 | X-H torsion
[ 6268 1997 1996 1994 ] final  -73.58 input   60.00 | X-H torsion
[ 8592   72   71   70 ] final -116.36 input   60.00 | X-H torsion
[ 4356  100   99   97 ] final   67.30 input   60.00 | X-H torsion
[ 8510  202  201  200 ] final  103.39 input   60.00 | X-H torsion
[ 5330 1065 1064 1063 ] final  140.82 input   60.00 | X-H torsion
[ 6640 2347 2346 2344 ] final  -21.19 input   60.00 | X-H torsion
[ 4452  380  379  378 ] final   30.01 input   60.00 | X-H torsion
[ 4500  391  390  389 ] final  126.80 input   60.00 | X-H torsion

> <Gold.Protein.ActiveResidues>
 THR8    THR9    PRO10   ILE11   TYR12   TYR13   VAL14   ASN15   ALA16   HIS19  
 HIS22   SER25   VAL29   MET46   THR47   GLY48   THR49   ASP50   GLU51   HIS52  
 GLY53   GLN54   LYS55   VAL56   ALA57   GLU58   THR71   PHE78   ILE93   THR95  
 THR96   HIS100  GLU101  VAL104  TRP108  TYR126  VAL128  SER129  ASP130  GLU131 
 SER132  LEU210  SER211  ILE212  SER213  ARG214  LYS215  ARG216  SER218  VAL219 
 MET220  ASN221  TRP222  SER223  ILE224  PRO225  VAL226  HIS232  CYS233  ILE234 
 TYR235  VAL236  TRP237  LEU238  ASP239  ALA240  LEU241  PHE242  ASN243  TYR244 
 TYR245  THR246  HIS275  VAL276  VAL277  GLY278  LYS279  ASP280  ILE281  LEU282 
 LYS283  PHE284  HIS285  ALA286  ILE287  TYR288  TRP289  PRO290  PHE292  LEU304 
 TRP309 

> <Gold.Protein.RotatedAtoms>
  -32.8991   -8.4073   -5.6517 H   0  0  0  0  0  0  0  0  0  0  0  0  # atno 4356 bound_to 100 
  -31.1995   -9.7483   -8.4412 H   0  0  0  0  0  0  0  0  0  0  0  0  # atno 4452 bound_to 380 
  -46.2023  -10.9616  -15.4973 H   0  0  0  0  0  0  0  0  0  0  0  0  # atno 4464 bound_to 112 
  -35.2690  -10.3215  -16.8754 H   0  0  0  0  0  0  0  0  0  0  0  0  # atno 4500 bound_to 391 
  -31.7245  -15.4223   -3.6686 H   0  0  0  0  0  0  0  0  0  0  0  0  # atno 4818 bound_to 65  
  -47.8331  -11.5795  -13.3421 H   0  0  0  0  0  0  0  0  0  0  0  0  # atno 4839 bound_to 441 
  -49.3612  -11.0169  -13.0327 H   0  0  0  0  0  0  0  0  0  0  0  0  # atno 4840 bound_to 441 
  -48.7816  -11.0305  -14.5855 H   0  0  0  0  0  0  0  0  0  0  0  0  # atno 4841 bound_to 441 
  -38.6746  -17.3140  -16.0958 H   0  0  0  0  0  0  0  0  0  0  0  0  # atno 4985 bound_to 758 
  -54.6544  -16.1224  -14.0735 H   0  0  0  0  0  0  0  0  0  0  0  0  # atno 5271 bound_to 1023
  -54.7106  -14.5536   -7.2708 H   0  0  0  0  0  0  0  0  0  0  0  0  # atno 5330 bound_to 1065
  -54.9642  -17.3494  -17.6408 H   0  0  0  0  0  0  0  0  0  0  0  0  # atno 6036 bound_to 1776
  -44.8349  -17.0927  -19.1897 H   0  0  0  0  0  0  0  0  0  0  0  0  # atno 6078 bound_to 1819
  -49.3491  -15.0429  -12.2357 H   0  0  0  0  0  0  0  0  0  0  0  0  # atno 6166 bound_to 1916
  -34.6627  -15.5195   -3.9825 H   0  0  0  0  0  0  0  0  0  0  0  0  # atno 6268 bound_to 1997
  -49.5647  -21.4372   -2.1659 H   0  0  0  0  0  0  0  0  0  0  0  0  # atno 6640 bound_to 2347
  -35.5015   -6.2529   -2.7208 H   0  0  0  0  0  0  0  0  0  0  0  0  # atno 8510 bound_to 202 
  -32.5189   -8.9164   -5.1478 H   0  0  0  0  0  0  0  0  0  0  0  0  # atno 8592 bound_to 72  
  -44.9668  -11.8870  -16.0124 LP  0  0  0  0  0  0  0  0  0  0  0  0  # atno 8618 bound_to 112 
  -45.2331  -10.4250  -16.6893 LP  0  0  0  0  0  0  0  0  0  0  0  0  # atno 8619 bound_to 112 
  -37.3068  -18.1885  -15.9849 LP  0  0  0  0  0  0  0  0  0  0  0  0  # atno 8637 bound_to 758 
  -37.8357  -17.6760  -17.4424 LP  0  0  0  0  0  0  0  0  0  0  0  0  # atno 8638 bound_to 758 
  -54.5972  -17.2134  -15.2795 LP  0  0  0  0  0  0  0  0  0  0  0  0  # atno 8642 bound_to 1023
  -54.2167  -17.6570  -13.7547 LP  0  0  0  0  0  0  0  0  0  0  0  0  # atno 8643 bound_to 1023
  -54.4200  -16.1137  -18.5490 LP  0  0  0  0  0  0  0  0  0  0  0  0  # atno 8662 bound_to 1776
  -53.3676  -17.0438  -17.7160 LP  0  0  0  0  0  0  0  0  0  0  0  0  # atno 8663 bound_to 1776
  -45.7119  -18.0744  -18.2331 LP  0  0  0  0  0  0  0  0  0  0  0  0  # atno 8672 bound_to 1819
  -46.3498  -17.5003  -19.6224 LP  0  0  0  0  0  0  0  0  0  0  0  0  # atno 8673 bound_to 1819
  -49.2691  -15.4812  -10.6706 LP  0  0  0  0  0  0  0  0  0  0  0  0  # atno 8684 bound_to 1916
  -50.6409  -15.7280  -11.5215 LP  0  0  0  0  0  0  0  0  0  0  0  0  # atno 8685 bound_to 1916
  -30.5322  -15.6159   -2.5782 LP  0  0  0  0  0  0  0  0  0  0  0  0  # atno 8712 bound_to 65  
  -31.0157  -16.8769   -3.4962 LP  0  0  0  0  0  0  0  0  0  0  0  0  # atno 8713 bound_to 65  
  -35.8775  -15.9606   -4.9713 LP  0  0  0  0  0  0  0  0  0  0  0  0  # atno 8724 bound_to 1997
  -34.6787  -14.9995   -5.5244 LP  0  0  0  0  0  0  0  0  0  0  0  0  # atno 8725 bound_to 1997
  -31.4160   -8.5946   -3.9955 LP  0  0  0  0  0  0  0  0  0  0  0  0  # atno 8747 bound_to 72  
  -32.5829   -9.7046   -3.7257 LP  0  0  0  0  0  0  0  0  0  0  0  0  # atno 8748 bound_to 72  
  -33.0593   -6.7988   -5.4638 LP  0  0  0  0  0  0  0  0  0  0  0  0  # atno 8749 bound_to 100 
  -31.9390   -7.3962   -6.4908 LP  0  0  0  0  0  0  0  0  0  0  0  0  # atno 8750 bound_to 100 
  -34.9199   -6.4184   -1.2100 LP  0  0  0  0  0  0  0  0  0  0  0  0  # atno 8754 bound_to 202 
  -35.4537   -7.7256   -2.0303 LP  0  0  0  0  0  0  0  0  0  0  0  0  # atno 8755 bound_to 202 
  -54.0488  -15.2689   -8.5740 LP  0  0  0  0  0  0  0  0  0  0  0  0  # atno 8775 bound_to 1065
  -53.9934  -16.0063   -7.1180 LP  0  0  0  0  0  0  0  0  0  0  0  0  # atno 8776 bound_to 1065
  -49.1353  -19.9504   -2.6691 LP  0  0  0  0  0  0  0  0  0  0  0  0  # atno 8779 bound_to 2347
  -48.9911  -20.3557   -1.0938 LP  0  0  0  0  0  0  0  0  0  0  0  0  # atno 8780 bound_to 2347
  -30.7506   -8.9142   -9.7644 LP  0  0  0  0  0  0  0  0  0  0  0  0  # atno 8787 bound_to 380 
  -30.3480   -8.3712   -8.2779 LP  0  0  0  0  0  0  0  0  0  0  0  0  # atno 8788 bound_to 380 

$$$$
