unknown|11k_best|sdf|10448|dock10
  -GOLD-   3 82120513D 1   1.00000     0.00000

 31 33  0  0  0  0  0  0  0  0  1 V2000
  -50.2372  -15.4125  -16.5110 C   0  0  0  0  0  0  0  0  0  0  0  0
  -49.0005  -14.9765  -15.9613 O   0  0  0  0  0  0  0  0  0  0  0  0
  -47.9189  -15.8253  -16.0589 C   0  0  0  0  0  0  0  0  0  0  0  0
  -48.0631  -17.1117  -16.5646 C   0  0  0  0  0  0  0  0  0  0  0  0
  -47.0836  -18.0599  -16.2956 C   0  0  0  0  0  0  0  0  0  0  0  0
  -45.8853  -17.6889  -15.6992 C   0  0  0  0  0  0  0  0  0  0  0  0
  -44.7907  -18.6837  -15.4900 C   0  0  0  0  0  0  0  0  0  0  0  0
  -43.8090  -18.5050  -16.6048 C   0  0  0  0  0  0  0  0  0  0  0  0
  -43.3700  -19.5723  -17.1300 O   0  0  0  0  0  0  0  0  0  0  0  0
  -44.1011  -17.4765  -17.5027 O   0  0  0  0  0  0  0  0  0  0  0  0
  -45.6812  -16.3222  -15.5808 C   0  0  0  0  0  0  0  0  0  0  0  0
  -46.7374  -15.4276  -15.4447 C   0  0  0  0  0  0  0  0  0  0  0  0
  -46.6450  -14.0961  -14.3379 S   0  0  0  0  0  0  0  0  0  0  0  0
  -46.5407  -12.7646  -15.0430 O   0  0  0  0  0  0  0  0  0  0  0  0
  -47.9164  -14.0819  -13.5196 O   0  0  0  0  0  0  0  0  0  0  0  0
  -45.2777  -14.1982  -13.2828 N   0  0  0  0  0  0  0  0  0  0  0  0
  -45.0930  -13.0886  -12.3942 C   0  0  0  0  0  0  0  0  0  0  0  0
  -45.9949  -12.0320  -12.3913 C   0  0  0  0  0  0  0  0  0  0  0  0
  -45.9237  -11.0150  -11.4499 C   0  0  0  0  0  0  0  0  0  0  0  0
  -44.9981  -11.1377  -10.4210 C   0  0  0  0  0  0  0  0  0  0  0  0
  -44.0319  -12.1363  -10.4239 C   0  0  0  0  0  0  0  0  0  0  0  0
  -42.6870  -11.7872   -9.9463 C   0  0  0  0  0  0  0  0  0  0  0  0
  -41.9436  -12.7211   -9.5584 O   0  0  0  0  0  0  0  0  0  0  0  0
  -42.3712  -10.4753   -9.4687 N   0  0  0  0  0  0  0  0  0  0  0  0
  -41.2155  -10.2068   -8.6738 C   0  0  0  0  0  0  0  0  0  0  0  0
  -40.7777   -8.9059   -8.4541 C   0  0  0  0  0  0  0  0  0  0  0  0
  -40.1551   -8.6898   -7.2308 C   0  0  0  0  0  0  0  0  0  0  0  0
  -39.4573   -9.7252   -6.7037 N   0  0  0  0  0  0  0  0  0  0  0  0
  -39.2993  -10.8485   -7.4402 C   0  0  0  0  0  0  0  0  0  0  0  0
  -40.2952  -11.1942   -8.3454 C   0  0  0  0  0  0  0  0  0  0  0  0
  -44.1706  -13.1125  -11.3683 C   0  0  0  0  0  0  0  0  0  0  0  0
  1  2  1  0  0  0  0
  2  3  1  0  0  0  0
  3  4  2  0  0  0  0
  4  5  1  0  0  0  0
  5  6  2  0  0  0  0
  6  7  1  0  0  0  0
  7  8  1  0  0  0  0
  8  9  2  0  0  0  0
  8 10  1  0  0  0  0
  6 11  1  0  0  0  0
 11 12  2  0  0  0  0
 12 13  1  0  0  0  0
 13 14  2  0  0  0  0
 13 15  2  0  0  0  0
 13 16  1  0  0  0  0
 16 17  1  0  0  0  0
 17 18  2  0  0  0  0
 18 19  1  0  0  0  0
 19 20  2  0  0  0  0
 20 21  1  0  0  0  0
 21 22  1  0  0  0  0
 22 23  2  0  0  0  0
 22 24  1  0  0  0  0
 24 25  1  0  0  0  0
 25 26  2  0  0  0  0
 26 27  1  0  0  0  0
 27 28  2  0  0  0  0
 28 29  1  0  0  0  0
 29 30  2  0  0  0  0
 21 31  2  0  0  0  0
 12  3  1  0  0  0  0
 31 17  1  0  0  0  0
 30 25  1  0  0  0  0
M  END
>  <zinc_id>  (448) 
ZINC000058162243

>  <smiles>  (448) 
COc1ccc(CC(=O)O)cc1S(=O)(=O)Nc1cccc(C(=O)Nc2ccncc2)c1

>  <source_line>  (448) 
448

>  <source_data>  (448) 
ZINC000058162243

>  <source_name>  (448) 


>  <source_label>  (448) 
ZINC000058162243

>  <found_by>  (448) 
ZINC

> <Gold.Version>
5.8.1

> <Gold.Id.Protein>
ID|ID_protein|mol2

> <Gold.Goldscore.Fitness>
83.0919

> <Gold.Goldscore.Internal.Vdw>
0.0975

> <Gold.Goldscore.Internal.Torsion>
-7.2891

> <Gold.Goldscore.External.Vdw>
49.7492

> <Gold.Goldscore.Internal.HBond>
0.0000

> <Gold.Goldscore.External.HBond>
18.2155

> <Gold.Goldscore.Internal.Correction>
-3.6629

> <Gold.Goldscore.Hbonds>
donor molecule, donor type, donor heavy atom, donor atom, acceptor molecule, acceptor atom, score
      P1  H   112  4464       L1    14  0.87
      P1  H   426  4822       L1     2  0.84
      P1  H   441  4841       L1    14  1.00
      P1  H  1819  6078       L1    10  0.41
      P1  H  1822  6079       L1     9  0.79
      P1  H  1916  6166       L1    15  0.78

> <Gold.Goldscore.Internal.Vdw.Weighted>
0.0975

> <Gold.Goldscore.Internal.Torsion.Weighted>
-7.2891

> <Gold.Goldscore.External.Vdw.Weighted>
68.4052

> <Gold.Goldscore.Internal.HBond.Weighted>
0.0000

> <Gold.Goldscore.External.HBond.Weighted>
18.2155

> <Gold.Goldscore.Internal.Correction.Weighted>
-3.6629

> <Gold.Protein.RotatedTorsions>
[ 4464  112  111  109 ] final   67.15 input   60.00 | X-H torsion
[ 4839  441  440  439 ] final -110.97 input   60.00 | X-H torsion
[ 4985  758  757  756 ] final -159.48 input   60.00 | X-H torsion
[ 5271 1023 1022 1020 ] final  137.23 input   60.00 | X-H torsion
[ 6036 1776 1775 1774 ] final -173.41 input   60.00 | X-H torsion
[ 6078 1819 1818 1817 ] final  -79.69 input   60.00 | X-H torsion
[ 6166 1916 1915 1913 ] final  -48.52 input   60.00 | X-H torsion
[ 4818   65   64   63 ] final -144.02 input   60.00 | X-H torsion
[ 6268 1997 1996 1994 ] final  179.19 input   60.00 | X-H torsion
[ 8592   72   71   70 ] final  -18.99 input   60.00 | X-H torsion
[ 4356  100   99   97 ] final -156.77 input   60.00 | X-H torsion
[ 8510  202  201  200 ] final  159.63 input   60.00 | X-H torsion
[ 5330 1065 1064 1063 ] final  151.06 input   60.00 | X-H torsion
[ 6640 2347 2346 2344 ] final   77.76 input   60.00 | X-H torsion
[ 4452  380  379  378 ] final -153.12 input   60.00 | X-H torsion
[ 4500  391  390  389 ] final  110.71 input   60.00 | X-H torsion

> <Gold.Protein.ActiveResidues>
 THR8    THR9    PRO10   ILE11   TYR12   TYR13   VAL14   ASN15   ALA16   HIS19  
 HIS22   SER25   VAL29   MET46   THR47   GLY48   THR49   ASP50   GLU51   HIS52  
 GLY53   GLN54   LYS55   VAL56   ALA57   GLU58   THR71   PHE78   ILE93   THR95  
 THR96   HIS100  GLU101  VAL104  TRP108  TYR126  VAL128  SER129  ASP130  GLU131 
 SER132  LEU210  SER211  ILE212  SER213  ARG214  LYS215  ARG216  SER218  VAL219 
 MET220  ASN221  TRP222  SER223  ILE224  PRO225  VAL226  HIS232  CYS233  ILE234 
 TYR235  VAL236  TRP237  LEU238  ASP239  ALA240  LEU241  PHE242  ASN243  TYR244 
 TYR245  THR246  HIS275  VAL276  VAL277  GLY278  LYS279  ASP280  ILE281  LEU282 
 LYS283  PHE284  HIS285  ALA286  ILE287  TYR288  TRP289  PRO290  PHE292  LEU304 
 TRP309 

> <Gold.Protein.RotatedAtoms>
  -31.9970   -7.1484   -6.4354 H   0  0  0  0  0  0  0  0  0  0  0  0  # atno 4356 bound_to 100 
  -30.3200   -8.2634   -9.1657 H   0  0  0  0  0  0  0  0  0  0  0  0  # atno 4452 bound_to 380 
  -45.7595  -11.7071  -15.4227 H   0  0  0  0  0  0  0  0  0  0  0  0  # atno 4464 bound_to 112 
  -35.3465  -10.5545  -16.7838 H   0  0  0  0  0  0  0  0  0  0  0  0  # atno 4500 bound_to 391 
  -31.0399  -16.8652   -3.5189 H   0  0  0  0  0  0  0  0  0  0  0  0  # atno 4818 bound_to 65  
  -48.7081  -11.3214  -12.7044 H   0  0  0  0  0  0  0  0  0  0  0  0  # atno 4839 bound_to 441 
  -49.4041  -10.8468  -14.1318 H   0  0  0  0  0  0  0  0  0  0  0  0  # atno 4840 bound_to 441 
  -47.8637  -11.4586  -14.1240 H   0  0  0  0  0  0  0  0  0  0  0  0  # atno 4841 bound_to 441 
  -38.7247  -17.2573  -16.2991 H   0  0  0  0  0  0  0  0  0  0  0  0  # atno 4985 bound_to 758 
  -54.6411  -17.0533  -15.2907 H   0  0  0  0  0  0  0  0  0  0  0  0  # atno 5271 bound_to 1023
  -54.6977  -14.6401   -7.1286 H   0  0  0  0  0  0  0  0  0  0  0  0  # atno 5330 bound_to 1065
  -54.2294  -17.5741  -17.3912 H   0  0  0  0  0  0  0  0  0  0  0  0  # atno 6036 bound_to 1776
  -44.9107  -17.6038  -18.4186 H   0  0  0  0  0  0  0  0  0  0  0  0  # atno 6078 bound_to 1819
  -49.1978  -15.0220  -12.1209 H   0  0  0  0  0  0  0  0  0  0  0  0  # atno 6166 bound_to 1916
  -35.8487  -16.0133   -4.7712 H   0  0  0  0  0  0  0  0  0  0  0  0  # atno 6268 bound_to 1997
  -49.0959  -20.6804   -1.0554 H   0  0  0  0  0  0  0  0  0  0  0  0  # atno 6640 bound_to 2347
  -35.6623   -7.1181   -2.7868 H   0  0  0  0  0  0  0  0  0  0  0  0  # atno 8510 bound_to 202 
  -32.7915   -9.7238   -4.0291 H   0  0  0  0  0  0  0  0  0  0  0  0  # atno 8592 bound_to 72  
  -44.7204  -11.2882  -16.6029 LP  0  0  0  0  0  0  0  0  0  0  0  0  # atno 8618 bound_to 112 
  -45.9255  -10.2732  -16.1740 LP  0  0  0  0  0  0  0  0  0  0  0  0  # atno 8619 bound_to 112 
  -37.4361  -18.1279  -15.8197 LP  0  0  0  0  0  0  0  0  0  0  0  0  # atno 8637 bound_to 758 
  -37.6560  -17.7936  -17.4029 LP  0  0  0  0  0  0  0  0  0  0  0  0  # atno 8638 bound_to 758 
  -54.2153  -17.7583  -13.8872 LP  0  0  0  0  0  0  0  0  0  0  0  0  # atno 8642 bound_to 1023
  -54.6120  -16.1746  -13.9213 LP  0  0  0  0  0  0  0  0  0  0  0  0  # atno 8643 bound_to 1023
  -55.0775  -16.5210  -18.2967 LP  0  0  0  0  0  0  0  0  0  0  0  0  # atno 8662 bound_to 1776
  -53.4501  -16.4102  -18.2196 LP  0  0  0  0  0  0  0  0  0  0  0  0  # atno 8663 bound_to 1776
  -46.4274  -18.0238  -18.8325 LP  0  0  0  0  0  0  0  0  0  0  0  0  # atno 8672 bound_to 1819
  -45.5579  -17.0361  -19.7995 LP  0  0  0  0  0  0  0  0  0  0  0  0  # atno 8673 bound_to 1819
  -49.4308  -15.5606  -10.6031 LP  0  0  0  0  0  0  0  0  0  0  0  0  # atno 8684 bound_to 1916
  -50.6315  -15.6696  -11.7046 LP  0  0  0  0  0  0  0  0  0  0  0  0  # atno 8685 bound_to 1916
  -31.7198  -15.3927   -3.6503 LP  0  0  0  0  0  0  0  0  0  0  0  0  # atno 8712 bound_to 65  
  -30.5175  -15.6470   -2.5750 LP  0  0  0  0  0  0  0  0  0  0  0  0  # atno 8713 bound_to 65  
  -34.8436  -15.0682   -5.6340 LP  0  0  0  0  0  0  0  0  0  0  0  0  # atno 8724 bound_to 1997
  -34.5183  -15.3946   -4.0674 LP  0  0  0  0  0  0  0  0  0  0  0  0  # atno 8725 bound_to 1997
  -32.2367   -8.6791   -5.1466 LP  0  0  0  0  0  0  0  0  0  0  0  0  # atno 8747 bound_to 72  
  -31.4877   -8.8070   -3.7012 LP  0  0  0  0  0  0  0  0  0  0  0  0  # atno 8748 bound_to 72  
  -32.7117   -8.4744   -5.8196 LP  0  0  0  0  0  0  0  0  0  0  0  0  # atno 8749 bound_to 100 
  -33.1951   -6.9883   -5.3459 LP  0  0  0  0  0  0  0  0  0  0  0  0  # atno 8750 bound_to 100 
  -35.1104   -5.8779   -1.8894 LP  0  0  0  0  0  0  0  0  0  0  0  0  # atno 8754 bound_to 202 
  -35.1014   -7.3947   -1.2845 LP  0  0  0  0  0  0  0  0  0  0  0  0  # atno 8755 bound_to 202 
  -54.1257  -15.1194   -8.5747 LP  0  0  0  0  0  0  0  0  0  0  0  0  # atno 8775 bound_to 1065
  -53.9295  -16.0686   -7.2605 LP  0  0  0  0  0  0  0  0  0  0  0  0  # atno 8776 bound_to 1065
  -49.5766  -21.3011   -2.4808 LP  0  0  0  0  0  0  0  0  0  0  0  0  # atno 8779 bound_to 2347
  -49.0219  -19.7673   -2.4004 LP  0  0  0  0  0  0  0  0  0  0  0  0  # atno 8780 bound_to 2347
  -30.8118   -9.1543   -7.8958 LP  0  0  0  0  0  0  0  0  0  0  0  0  # atno 8787 bound_to 380 
  -31.1726   -9.6265   -9.4168 LP  0  0  0  0  0  0  0  0  0  0  0  0  # atno 8788 bound_to 380 

$$$$
