unknown|11k_best|sdf|8319|dock6
  -GOLD-   3 721 1353D 1   1.00000     0.00000

 30 33  0  0  0  0  0  0  0  0  1 V2000
  -44.9410  -12.0380  -12.3011 C   0  0  0  0  0  0  0  0  0  0  0  0
  -45.7268  -11.7503  -12.2542 C   0  0  0  0  0  0  0  0  0  0  0  0
  -45.7294  -10.7371  -11.1139 C   0  0  0  0  0  0  0  0  0  0  0  0
  -46.5086  -13.0621  -11.6214 C   0  0  1  0  0  0  0  0  0  0  0  0
  -47.8188  -12.2649  -11.2337 N   0  0  0  0  0  0  0  0  0  0  0  0
  -48.2209  -12.4719   -9.8810 C   0  0  0  0  0  0  0  0  0  0  0  0
  -49.3091  -11.8870   -9.6494 O   0  0  0  0  0  0  0  0  0  0  0  0
  -47.6682  -13.4228   -8.9237 C   0  0  0  0  0  0  0  0  0  0  0  0
  -48.7206  -13.9838   -8.0110 C   0  0  0  0  0  0  0  0  0  0  0  0
  -48.8533  -13.4088   -6.7529 C   0  0  0  0  0  0  0  0  0  0  0  0
  -49.8737  -14.5355   -5.9635 S   0  0  0  0  0  0  0  0  0  0  0  0
  -50.0725  -15.6143   -7.2803 C   0  0  0  0  0  0  0  0  0  0  0  0
  -51.0407  -16.7139   -7.3813 C   0  0  0  0  0  0  0  0  0  0  0  0
  -50.7789  -17.7248   -8.2915 C   0  0  0  0  0  0  0  0  0  0  0  0
  -51.0879  -19.0511   -8.0594 C   0  0  0  0  0  0  0  0  0  0  0  0
  -51.5370  -19.4212   -6.7981 C   0  0  0  0  0  0  0  0  0  0  0  0
  -52.0846  -18.4040   -6.0262 C   0  0  0  0  0  0  0  0  0  0  0  0
  -51.8426  -17.0675   -6.3212 C   0  0  0  0  0  0  0  0  0  0  0  0
  -49.0665  -15.2510   -8.0528 N   0  0  0  0  0  0  0  0  0  0  0  0
  -47.0963  -13.5585  -13.0442 C   0  0  0  0  0  0  0  0  0  0  0  0
  -47.2267  -14.8971  -13.2588 N   0  0  0  0  0  0  0  0  0  0  0  0
  -47.1283  -15.1576  -14.5943 C   0  0  0  0  0  0  0  0  0  0  0  0
  -46.3919  -16.3112  -15.1476 C   0  0  0  0  0  0  0  0  0  0  0  0
  -45.3159  -16.8664  -14.4609 C   0  0  0  0  0  0  0  0  0  0  0  0
  -44.4259  -17.6140  -15.1661 C   0  0  0  0  0  0  0  0  0  0  0  0
  -44.9464  -18.3714  -16.2085 C   0  0  0  0  0  0  0  0  0  0  0  0
  -46.2355  -18.1735  -16.5784 N   0  0  0  0  0  0  0  0  0  0  0  0
  -46.9669  -17.1470  -16.0951 C   0  0  0  0  0  0  0  0  0  0  0  0
  -47.1222  -13.8902  -15.0924 N   0  0  0  0  0  0  0  0  0  0  0  0
  -46.6549  -13.0839  -14.1680 O   0  0  0  0  0  0  0  0  0  0  0  0
  1  2  1  0  0  0  0
  2  3  1  0  0  0  0
  4  2  1  0  0  0  0
  4  5  1  0  0  0  0
  5  6  1  0  0  0  0
  6  7  2  0  0  0  0
  6  8  1  0  0  0  0
  8  9  1  0  0  0  0
  9 10  2  0  0  0  0
 10 11  1  0  0  0  0
 11 12  1  0  0  0  0
 12 13  1  0  0  0  0
 13 14  2  0  0  0  0
 14 15  1  0  0  0  0
 15 16  2  0  0  0  0
 16 17  1  0  0  0  0
 17 18  2  0  0  0  0
 12 19  2  0  0  0  0
  4 20  1  0  0  0  0
 20 21  2  0  0  0  0
 21 22  1  0  0  0  0
 22 23  1  0  0  0  0
 23 24  2  0  0  0  0
 24 25  1  0  0  0  0
 25 26  2  0  0  0  0
 26 27  1  0  0  0  0
 27 28  2  0  0  0  0
 22 29  2  0  0  0  0
 29 30  1  0  0  0  0
 19  9  1  0  0  0  0
 30 20  1  0  0  0  0
 18 13  1  0  0  0  0
 28 23  1  0  0  0  0
M  END
>  <zinc_id>  (319) 
ZINC000058266686

>  <smiles>  (319) 
CC(C)[C@@H](NC(=O)Cc1csc(-c2ccccc2)n1)c1nc(-c2cccnc2)no1

>  <source_line>  (319) 
319

>  <source_data>  (319) 
ZINC000058266686

>  <source_name>  (319) 


>  <source_label>  (319) 
ZINC000058266686

>  <found_by>  (319) 
ZINC

> <Gold.Version>
5.8.1

> <Gold.Id.Protein>
ID|ID_protein|mol2

> <Gold.Goldscore.Fitness>
67.9147

> <Gold.Goldscore.Internal.Vdw>
0.5286

> <Gold.Goldscore.Internal.Torsion>
-5.2739

> <Gold.Goldscore.External.Vdw>
43.6218

> <Gold.Goldscore.Internal.HBond>
0.0000

> <Gold.Goldscore.External.HBond>
12.9868

> <Gold.Goldscore.Internal.Correction>
0.3068

> <Gold.Goldscore.Hbonds>
donor molecule, donor type, donor heavy atom, donor atom, acceptor molecule, acceptor atom, score
      P1  H   112  4464       L1    30  0.99
      P1  H   441  4841       L1     5  1.00
      P1  H  1819  6078       L1    27  0.20
      P1  H  1916  6166       L1    19  0.30

> <Gold.Goldscore.Internal.Vdw.Weighted>
0.5286

> <Gold.Goldscore.Internal.Torsion.Weighted>
-5.2739

> <Gold.Goldscore.External.Vdw.Weighted>
59.9799

> <Gold.Goldscore.Internal.HBond.Weighted>
0.0000

> <Gold.Goldscore.External.HBond.Weighted>
12.9868

> <Gold.Goldscore.Internal.Correction.Weighted>
0.3068

> <Gold.Protein.RotatedTorsions>
[ 4464  112  111  109 ] final   74.49 input   60.00 | X-H torsion
[ 4839  441  440  439 ] final  -15.38 input   60.00 | X-H torsion
[ 4985  758  757  756 ] final   27.21 input   60.00 | X-H torsion
[ 5271 1023 1022 1020 ] final   58.22 input   60.00 | X-H torsion
[ 6036 1776 1775 1774 ] final -129.65 input   60.00 | X-H torsion
[ 6078 1819 1818 1817 ] final -148.84 input   60.00 | X-H torsion
[ 6166 1916 1915 1913 ] final -168.34 input   60.00 | X-H torsion
[ 4818   65   64   63 ] final   50.78 input   60.00 | X-H torsion
[ 6268 1997 1996 1994 ] final -147.05 input   60.00 | X-H torsion
[ 8592   72   71   70 ] final -132.70 input   60.00 | X-H torsion
[ 4356  100   99   97 ] final  -93.16 input   60.00 | X-H torsion
[ 8510  202  201  200 ] final  -59.46 input   60.00 | X-H torsion
[ 5330 1065 1064 1063 ] final   -2.12 input   60.00 | X-H torsion
[ 6640 2347 2346 2344 ] final  128.47 input   60.00 | X-H torsion
[ 4452  380  379  378 ] final -178.48 input   60.00 | X-H torsion
[ 4500  391  390  389 ] final  131.46 input   60.00 | X-H torsion

> <Gold.Protein.ActiveResidues>
 THR8    THR9    PRO10   ILE11   TYR12   TYR13   VAL14   ASN15   ALA16   HIS19  
 HIS22   SER25   VAL29   MET46   THR47   GLY48   THR49   ASP50   GLU51   HIS52  
 GLY53   GLN54   LYS55   VAL56   ALA57   GLU58   THR71   PHE78   ILE93   THR95  
 THR96   HIS100  GLU101  VAL104  TRP108  TYR126  VAL128  SER129  ASP130  GLU131 
 SER132  LEU210  SER211  ILE212  SER213  ARG214  LYS215  ARG216  SER218  VAL219 
 MET220  ASN221  TRP222  SER223  ILE224  PRO225  VAL226  HIS232  CYS233  ILE234 
 TYR235  VAL236  TRP237  LEU238  ASP239  ALA240  LEU241  PHE242  ASN243  TYR244 
 TYR245  THR246  HIS275  VAL276  VAL277  GLY278  LYS279  ASP280  ILE281  LEU282 
 LYS283  PHE284  HIS285  ALA286  ILE287  TYR288  TRP289  PRO290  PHE292  LEU304 
 TRP309 

> <Gold.Protein.RotatedAtoms>
  -32.5993   -6.6006   -5.8776 H   0  0  0  0  0  0  0  0  0  0  0  0  # atno 4356 bound_to 100 
  -30.2744   -8.2197   -8.7595 H   0  0  0  0  0  0  0  0  0  0  0  0  # atno 4452 bound_to 380 
  -45.8453  -11.6277  -15.3965 H   0  0  0  0  0  0  0  0  0  0  0  0  # atno 4464 bound_to 112 
  -35.2349  -10.2564  -16.8952 H   0  0  0  0  0  0  0  0  0  0  0  0  # atno 4500 bound_to 391 
  -31.3171  -15.0673   -3.1471 H   0  0  0  0  0  0  0  0  0  0  0  0  # atno 4818 bound_to 65  
  -49.5390  -10.8465  -13.7503 H   0  0  0  0  0  0  0  0  0  0  0  0  # atno 4839 bound_to 441 
  -48.1008  -11.3229  -14.4226 H   0  0  0  0  0  0  0  0  0  0  0  0  # atno 4840 bound_to 441 
  -48.3361  -11.4573  -12.7874 H   0  0  0  0  0  0  0  0  0  0  0  0  # atno 4841 bound_to 441 
  -37.1459  -18.2096  -16.6068 H   0  0  0  0  0  0  0  0  0  0  0  0  # atno 4985 bound_to 758 
  -54.2966  -17.8982  -14.5249 H   0  0  0  0  0  0  0  0  0  0  0  0  # atno 5271 bound_to 1023
  -53.9076  -15.5964   -8.4622 H   0  0  0  0  0  0  0  0  0  0  0  0  # atno 5330 bound_to 1065
  -53.5903  -17.3256  -17.5211 H   0  0  0  0  0  0  0  0  0  0  0  0  # atno 6036 bound_to 1776
  -45.8397  -18.1021  -18.2854 H   0  0  0  0  0  0  0  0  0  0  0  0  # atno 6078 bound_to 1819
  -49.4298  -15.5606  -10.6107 H   0  0  0  0  0  0  0  0  0  0  0  0  # atno 6166 bound_to 1916
  -35.6139  -16.0299   -4.2810 H   0  0  0  0  0  0  0  0  0  0  0  0  # atno 6268 bound_to 1997
  -48.8988  -19.9644   -1.3576 H   0  0  0  0  0  0  0  0  0  0  0  0  # atno 6640 bound_to 2347
  -34.9991   -7.0977   -1.1518 H   0  0  0  0  0  0  0  0  0  0  0  0  # atno 8510 bound_to 202 
  -32.3168   -8.7437   -5.1568 H   0  0  0  0  0  0  0  0  0  0  0  0  # atno 8592 bound_to 72  
  -44.7145  -11.3927  -16.5429 LP  0  0  0  0  0  0  0  0  0  0  0  0  # atno 8618 bound_to 112 
  -45.8449  -10.2486  -16.2603 LP  0  0  0  0  0  0  0  0  0  0  0  0  # atno 8619 bound_to 112 
  -38.3704  -17.3627  -17.2636 LP  0  0  0  0  0  0  0  0  0  0  0  0  # atno 8637 bound_to 758 
  -38.3116  -17.5998  -15.6490 LP  0  0  0  0  0  0  0  0  0  0  0  0  # atno 8638 bound_to 758 
  -54.4210  -16.6428  -13.4969 LP  0  0  0  0  0  0  0  0  0  0  0  0  # atno 8642 bound_to 1023
  -54.7532  -16.4392  -15.0827 LP  0  0  0  0  0  0  0  0  0  0  0  0  # atno 8643 bound_to 1023
  -55.1595  -17.0749  -17.8720 LP  0  0  0  0  0  0  0  0  0  0  0  0  # atno 8662 bound_to 1776
  -54.0117  -16.1066  -18.5134 LP  0  0  0  0  0  0  0  0  0  0  0  0  # atno 8663 bound_to 1776
  -46.2657  -17.4158  -19.6980 LP  0  0  0  0  0  0  0  0  0  0  0  0  # atno 8672 bound_to 1819
  -44.7841  -17.1423  -19.0681 LP  0  0  0  0  0  0  0  0  0  0  0  0  # atno 8673 bound_to 1819
  -50.6319  -15.6705  -11.7019 LP  0  0  0  0  0  0  0  0  0  0  0  0  # atno 8684 bound_to 1916
  -49.1968  -15.0173  -12.1267 LP  0  0  0  0  0  0  0  0  0  0  0  0  # atno 8685 bound_to 1916
  -30.4093  -16.3486   -2.7201 LP  0  0  0  0  0  0  0  0  0  0  0  0  # atno 8712 bound_to 65  
  -31.5489  -16.5017   -3.8796 LP  0  0  0  0  0  0  0  0  0  0  0  0  # atno 8713 bound_to 65  
  -35.3112  -15.3388   -5.7229 LP  0  0  0  0  0  0  0  0  0  0  0  0  # atno 8724 bound_to 1997
  -34.2871  -15.1073   -4.4722 LP  0  0  0  0  0  0  0  0  0  0  0  0  # atno 8725 bound_to 1997
  -31.4563   -8.7423   -3.7756 LP  0  0  0  0  0  0  0  0  0  0  0  0  # atno 8747 bound_to 72  
  -32.7461   -9.7308   -3.9365 LP  0  0  0  0  0  0  0  0  0  0  0  0  # atno 8748 bound_to 72  
  -32.0449   -8.0346   -6.4109 LP  0  0  0  0  0  0  0  0  0  0  0  0  # atno 8749 bound_to 100 
  -33.2553   -7.9799   -5.3162 LP  0  0  0  0  0  0  0  0  0  0  0  0  # atno 8750 bound_to 100 
  -35.6406   -7.4113   -2.6140 LP  0  0  0  0  0  0  0  0  0  0  0  0  # atno 8754 bound_to 202 
  -35.2390   -5.8819   -2.2064 LP  0  0  0  0  0  0  0  0  0  0  0  0  # atno 8755 bound_to 202 
  -54.1630  -15.7860   -6.8663 LP  0  0  0  0  0  0  0  0  0  0  0  0  # atno 8775 bound_to 1065
  -54.6879  -14.4390   -7.6258 LP  0  0  0  0  0  0  0  0  0  0  0  0  # atno 8776 bound_to 1065
  -49.4838  -21.4457   -1.6919 LP  0  0  0  0  0  0  0  0  0  0  0  0  # atno 8779 bound_to 2347
  -49.3131  -20.3438   -2.8849 LP  0  0  0  0  0  0  0  0  0  0  0  0  # atno 8780 bound_to 2347
  -31.0187   -9.4793   -8.0471 LP  0  0  0  0  0  0  0  0  0  0  0  0  # atno 8787 bound_to 380 
  -31.0117   -9.3454   -9.6746 LP  0  0  0  0  0  0  0  0  0  0  0  0  # atno 8788 bound_to 380 

$$$$
