unknown|11k_best|sdf|8308|dock4
  -GOLD-   3 721 1203D 1   1.00000     0.00000

 30 33  0  0  0  0  0  0  0  0  1 V2000
  -39.8003  -10.8950  -10.0566 C   0  0  0  0  0  0  0  0  0  0  0  0
  -40.8254  -11.0824   -9.4370 O   0  0  0  0  0  0  0  0  0  0  0  0
  -41.4247  -12.2822   -9.3560 C   0  0  0  0  0  0  0  0  0  0  0  0
  -40.8811  -13.2390   -9.9990 O   0  0  0  0  0  0  0  0  0  0  0  0
  -43.0374  -12.3587   -9.5389 C   0  0  2  0  0  0  0  0  0  0  0  0
  -43.2477  -10.8001   -9.3304 N   0  0  0  0  0  0  0  0  0  0  0  0
  -44.2650  -10.1873  -10.1414 C   0  0  0  0  0  0  0  0  0  0  0  0
  -44.4571   -8.9862   -9.7519 O   0  0  0  0  0  0  0  0  0  0  0  0
  -45.3716  -10.7838  -10.8110 C   0  0  0  0  0  0  0  0  0  0  0  0
  -45.7266  -11.0899  -12.4175 S   0  0  0  0  0  0  0  0  0  0  0  0
  -45.3333  -12.6828  -13.1431 C   0  0  0  0  0  0  0  0  0  0  0  0
  -44.4178  -13.4951  -12.5595 N   0  0  0  0  0  0  0  0  0  0  0  0
  -44.3250  -14.7676  -12.9451 N   0  0  0  0  0  0  0  0  0  0  0  0
  -45.2394  -15.2824  -13.7821 C   0  0  0  0  0  0  0  0  0  0  0  0
  -45.2296  -16.3210  -14.7065 C   0  0  0  0  0  0  0  0  0  0  0  0
  -44.2265  -17.1324  -15.1963 C   0  0  0  0  0  0  0  0  0  0  0  0
  -44.4354  -17.9701  -16.2812 C   0  0  0  0  0  0  0  0  0  0  0  0
  -45.7616  -18.1411  -16.6584 C   0  0  0  0  0  0  0  0  0  0  0  0
  -46.6839  -17.1660  -16.3629 C   0  0  0  0  0  0  0  0  0  0  0  0
  -46.4746  -16.2965  -15.3057 C   0  0  0  0  0  0  0  0  0  0  0  0
  -47.1904  -15.2620  -14.8639 N   0  0  0  0  0  0  0  0  0  0  0  0
  -48.4456  -14.7500  -15.3981 C   0  0  0  0  0  0  0  0  0  0  0  0
  -46.3950  -14.5835  -14.0035 C   0  0  0  0  0  0  0  0  0  0  0  0
  -46.4426  -13.3116  -13.6071 N   0  0  0  0  0  0  0  0  0  0  0  0
  -43.2624  -12.7779   -7.9946 C   0  0  0  0  0  0  0  0  0  0  0  0
  -43.8395  -14.0379   -7.8985 C   0  0  0  0  0  0  0  0  0  0  0  0
  -44.1304  -14.4829   -6.6138 C   0  0  0  0  0  0  0  0  0  0  0  0
  -43.5060  -13.8307   -5.5568 C   0  0  0  0  0  0  0  0  0  0  0  0
  -43.1676  -12.4942   -5.7347 C   0  0  0  0  0  0  0  0  0  0  0  0
  -43.0725  -11.9375   -7.0067 C   0  0  0  0  0  0  0  0  0  0  0  0
  1  2  1  0  0  0  0
  2  3  1  0  0  0  0
  3  4  2  0  0  0  0
  5  3  1  0  0  0  0
  5  6  1  0  0  0  0
  6  7  1  0  0  0  0
  7  8  2  0  0  0  0
  7  9  1  0  0  0  0
  9 10  1  0  0  0  0
 10 11  1  0  0  0  0
 11 12  2  0  0  0  0
 12 13  1  0  0  0  0
 13 14  2  0  0  0  0
 14 15  1  0  0  0  0
 15 16  2  0  0  0  0
 16 17  1  0  0  0  0
 17 18  2  0  0  0  0
 18 19  1  0  0  0  0
 19 20  2  0  0  0  0
 20 21  1  0  0  0  0
 21 22  1  0  0  0  0
 21 23  1  0  0  0  0
 23 24  2  0  0  0  0
  5 25  1  0  0  0  0
 25 26  2  0  0  0  0
 26 27  1  0  0  0  0
 27 28  2  0  0  0  0
 28 29  1  0  0  0  0
 29 30  2  0  0  0  0
 24 11  1  0  0  0  0
 30 25  1  0  0  0  0
 23 14  1  0  0  0  0
 20 15  1  0  0  0  0
M  END
>  <zinc_id>  (308) 
ZINC000012428111

>  <smiles>  (308) 
COC(=O)[C@H](NC(=O)CSc1nnc2c3ccccc3n(C)c2n1)c1ccccc1

>  <source_line>  (308) 
308

>  <source_data>  (308) 
ZINC000012428111

>  <source_name>  (308) 


>  <source_label>  (308) 
ZINC000012428111

>  <found_by>  (308) 
ZINC

> <Gold.Version>
5.8.1

> <Gold.Id.Protein>
ID|ID_protein|mol2

> <Gold.Goldscore.Fitness>
63.4879

> <Gold.Goldscore.Internal.Vdw>
0.6639

> <Gold.Goldscore.Internal.Torsion>
-7.3635

> <Gold.Goldscore.External.Vdw>
45.7874

> <Gold.Goldscore.Internal.HBond>
0.0000

> <Gold.Goldscore.External.HBond>
5.9522

> <Gold.Goldscore.Internal.Correction>
-1.2776

> <Gold.Goldscore.Hbonds>
donor molecule, donor type, donor heavy atom, donor atom, acceptor molecule, acceptor atom, score
      P1  H   441  4839       L1    24  0.99

> <Gold.Goldscore.Internal.Vdw.Weighted>
0.6639

> <Gold.Goldscore.Internal.Torsion.Weighted>
-7.3635

> <Gold.Goldscore.External.Vdw.Weighted>
62.9577

> <Gold.Goldscore.Internal.HBond.Weighted>
0.0000

> <Gold.Goldscore.External.HBond.Weighted>
5.9522

> <Gold.Goldscore.Internal.Correction.Weighted>
-1.2776

> <Gold.Protein.RotatedTorsions>
[ 4464  112  111  109 ] final  110.56 input   60.00 | X-H torsion
[ 4839  441  440  439 ] final  162.60 input   60.00 | X-H torsion
[ 4985  758  757  756 ] final   -6.72 input   60.00 | X-H torsion
[ 5271 1023 1022 1020 ] final   47.25 input   60.00 | X-H torsion
[ 6036 1776 1775 1774 ] final -127.77 input   60.00 | X-H torsion
[ 6078 1819 1818 1817 ] final  -28.79 input   60.00 | X-H torsion
[ 6166 1916 1915 1913 ] final  -64.03 input   60.00 | X-H torsion
[ 4818   65   64   63 ] final   79.50 input   60.00 | X-H torsion
[ 6268 1997 1996 1994 ] final  -81.78 input   60.00 | X-H torsion
[ 8592   72   71   70 ] final  100.36 input   60.00 | X-H torsion
[ 4356  100   99   97 ] final   37.43 input   60.00 | X-H torsion
[ 8510  202  201  200 ] final  153.49 input   60.00 | X-H torsion
[ 5330 1065 1064 1063 ] final   65.27 input   60.00 | X-H torsion
[ 6640 2347 2346 2344 ] final  -27.51 input   60.00 | X-H torsion
[ 4452  380  379  378 ] final  -22.97 input   60.00 | X-H torsion
[ 4500  391  390  389 ] final -108.32 input   60.00 | X-H torsion

> <Gold.Protein.ActiveResidues>
 THR8    THR9    PRO10   ILE11   TYR12   TYR13   VAL14   ASN15   ALA16   HIS19  
 HIS22   SER25   VAL29   MET46   THR47   GLY48   THR49   ASP50   GLU51   HIS52  
 GLY53   GLN54   LYS55   VAL56   ALA57   GLU58   THR71   PHE78   ILE93   THR95  
 THR96   HIS100  GLU101  VAL104  TRP108  TYR126  VAL128  SER129  ASP130  GLU131 
 SER132  LEU210  SER211  ILE212  SER213  ARG214  LYS215  ARG216  SER218  VAL219 
 MET220  ASN221  TRP222  SER223  ILE224  PRO225  VAL226  HIS232  CYS233  ILE234 
 TYR235  VAL236  TRP237  LEU238  ASP239  ALA240  LEU241  PHE242  ASN243  TYR244 
 TYR245  THR246  HIS275  VAL276  VAL277  GLY278  LYS279  ASP280  ILE281  LEU282 
 LYS283  PHE284  HIS285  ALA286  ILE287  TYR288  TRP289  PRO290  PHE292  LEU304 
 TRP309 

> <Gold.Protein.RotatedAtoms>
  -33.1838   -8.1210   -5.3874 H   0  0  0  0  0  0  0  0  0  0  0  0  # atno 4356 bound_to 100 
  -31.2112   -9.7046   -9.2751 H   0  0  0  0  0  0  0  0  0  0  0  0  # atno 4452 bound_to 380 
  -46.1546  -11.1385  -15.4291 H   0  0  0  0  0  0  0  0  0  0  0  0  # atno 4464 bound_to 112 
  -33.7319   -9.9977  -16.3388 H   0  0  0  0  0  0  0  0  0  0  0  0  # atno 4500 bound_to 391 
  -31.6032  -15.2205   -3.4791 H   0  0  0  0  0  0  0  0  0  0  0  0  # atno 4818 bound_to 65  
  -47.7740  -11.5684  -13.5899 H   0  0  0  0  0  0  0  0  0  0  0  0  # atno 4839 bound_to 441 
  -49.1916  -11.1074  -12.8651 H   0  0  0  0  0  0  0  0  0  0  0  0  # atno 4840 bound_to 441 
  -49.0102  -10.9511  -14.5053 H   0  0  0  0  0  0  0  0  0  0  0  0  # atno 4841 bound_to 441 
  -37.2999  -18.0510  -17.1064 H   0  0  0  0  0  0  0  0  0  0  0  0  # atno 4985 bound_to 758 
  -54.2639  -17.9039  -14.3491 H   0  0  0  0  0  0  0  0  0  0  0  0  # atno 5271 bound_to 1023
  -54.3982  -14.6858   -8.3665 H   0  0  0  0  0  0  0  0  0  0  0  0  # atno 5330 bound_to 1065
  -53.5691  -17.3072  -17.5334 H   0  0  0  0  0  0  0  0  0  0  0  0  # atno 6036 bound_to 1776
  -44.7894  -17.1467  -19.0696 H   0  0  0  0  0  0  0  0  0  0  0  0  # atno 6078 bound_to 1819
  -49.0339  -15.0197  -11.9285 H   0  0  0  0  0  0  0  0  0  0  0  0  # atno 6166 bound_to 1916
  -34.7650  -15.5979   -3.9459 H   0  0  0  0  0  0  0  0  0  0  0  0  # atno 6268 bound_to 1997
  -49.5718  -21.4064   -2.2641 H   0  0  0  0  0  0  0  0  0  0  0  0  # atno 6640 bound_to 2347
  -35.6607   -7.0233   -2.8193 H   0  0  0  0  0  0  0  0  0  0  0  0  # atno 8510 bound_to 202 
  -31.4948   -8.8174   -3.6989 H   0  0  0  0  0  0  0  0  0  0  0  0  # atno 8592 bound_to 72  
  -44.8608  -11.8053  -16.1567 LP  0  0  0  0  0  0  0  0  0  0  0  0  # atno 8618 bound_to 112 
  -45.3872  -10.3286  -16.6137 LP  0  0  0  0  0  0  0  0  0  0  0  0  # atno 8619 bound_to 112 
  -38.6744  -17.2263  -16.8258 LP  0  0  0  0  0  0  0  0  0  0  0  0  # atno 8637 bound_to 758 
  -37.8525  -17.8959  -15.5837 LP  0  0  0  0  0  0  0  0  0  0  0  0  # atno 8638 bound_to 758 
  -54.4728  -16.4884  -13.5739 LP  0  0  0  0  0  0  0  0  0  0  0  0  # atno 8642 bound_to 1023
  -54.7343  -16.5879  -15.1828 LP  0  0  0  0  0  0  0  0  0  0  0  0  # atno 8643 bound_to 1023
  -55.1509  -17.0979  -17.8532 LP  0  0  0  0  0  0  0  0  0  0  0  0  # atno 8662 bound_to 1776
  -54.0416  -16.1022  -18.5199 LP  0  0  0  0  0  0  0  0  0  0  0  0  # atno 8663 bound_to 1776
  -45.8412  -18.1040  -18.2788 LP  0  0  0  0  0  0  0  0  0  0  0  0  # atno 8672 bound_to 1819
  -46.2663  -17.4163  -19.6976 LP  0  0  0  0  0  0  0  0  0  0  0  0  # atno 8673 bound_to 1819
  -49.6645  -15.6561  -10.5701 LP  0  0  0  0  0  0  0  0  0  0  0  0  # atno 8684 bound_to 1916
  -50.5630  -15.5763  -11.9313 LP  0  0  0  0  0  0  0  0  0  0  0  0  # atno 8685 bound_to 1916
  -30.4299  -15.9025   -2.5812 LP  0  0  0  0  0  0  0  0  0  0  0  0  # atno 8712 bound_to 65  
  -31.2401  -16.7935   -3.6841 LP  0  0  0  0  0  0  0  0  0  0  0  0  # atno 8713 bound_to 65  
  -35.8707  -15.9131   -5.0974 LP  0  0  0  0  0  0  0  0  0  0  0  0  # atno 8724 bound_to 1997
  -34.5825  -14.9681   -5.4352 LP  0  0  0  0  0  0  0  0  0  0  0  0  # atno 8725 bound_to 1997
  -32.8022   -9.7258   -4.0359 LP  0  0  0  0  0  0  0  0  0  0  0  0  # atno 8747 bound_to 72  
  -32.2281   -8.6731   -5.1444 LP  0  0  0  0  0  0  0  0  0  0  0  0  # atno 8748 bound_to 72  
  -32.7265   -6.6043   -5.7597 LP  0  0  0  0  0  0  0  0  0  0  0  0  # atno 8749 bound_to 100 
  -31.9851   -7.8790   -6.4611 LP  0  0  0  0  0  0  0  0  0  0  0  0  # atno 8750 bound_to 100 
  -35.0765   -5.9002   -1.7969 LP  0  0  0  0  0  0  0  0  0  0  0  0  # atno 8754 bound_to 202 
  -35.1368   -7.4680   -1.3443 LP  0  0  0  0  0  0  0  0  0  0  0  0  # atno 8755 bound_to 202 
  -53.7991  -16.0885   -7.7992 LP  0  0  0  0  0  0  0  0  0  0  0  0  # atno 8775 bound_to 1065
  -54.5577  -15.0535   -6.7893 LP  0  0  0  0  0  0  0  0  0  0  0  0  # atno 8776 bound_to 1065
  -49.0992  -19.8852   -2.5967 LP  0  0  0  0  0  0  0  0  0  0  0  0  # atno 8779 bound_to 2347
  -49.0201  -20.4519   -1.0672 LP  0  0  0  0  0  0  0  0  0  0  0  0  # atno 8780 bound_to 2347
  -30.3626   -8.3167   -9.3173 LP  0  0  0  0  0  0  0  0  0  0  0  0  # atno 8787 bound_to 380 
  -30.7243   -9.0127   -7.8851 LP  0  0  0  0  0  0  0  0  0  0  0  0  # atno 8788 bound_to 380 

$$$$
