unknown|11k_best|sdf|10712|dock2
  -GOLD-   3 921 2173D 1   1.00000     0.00000

 32 34  0  0  0  0  0  0  0  0  1 V2000
  -44.8785  -12.6571  -12.9518 C   0  0  0  0  0  0  0  0  0  0  0  0
  -45.5894  -12.2842  -12.5542 C   0  0  0  0  0  0  0  0  0  0  0  0
  -45.2849  -11.0394  -11.7225 C   0  0  0  0  0  0  0  0  0  0  0  0
  -46.2387  -13.2094  -11.3380 C   0  0  1  0  0  0  0  0  0  0  0  0
  -47.5281  -12.2828  -11.2299 N   0  0  0  0  0  0  0  0  0  0  0  0
  -47.9298  -12.0658   -9.8786 C   0  0  0  0  0  0  0  0  0  0  0  0
  -48.9442  -11.3686   -9.7011 O   0  0  0  0  0  0  0  0  0  0  0  0
  -47.2946  -12.5297   -8.7662 O   0  0  0  0  0  0  0  0  0  0  0  0
  -47.6742  -12.4770   -7.4541 C   0  0  0  0  0  0  0  0  0  0  0  0
  -46.9196  -13.2953   -6.4861 C   0  0  0  0  0  0  0  0  0  0  0  0
  -45.9993  -12.6737   -5.6487 C   0  0  0  0  0  0  0  0  0  0  0  0
  -44.7436  -13.2015   -5.3975 C   0  0  0  0  0  0  0  0  0  0  0  0
  -44.3299  -14.3436   -6.0425 C   0  0  0  0  0  0  0  0  0  0  0  0
  -45.2980  -15.1034   -6.6363 C   0  0  0  0  0  0  0  0  0  0  0  0
  -46.5554  -14.5765   -6.8891 C   0  0  0  0  0  0  0  0  0  0  0  0
  -46.9123  -14.2471  -12.3874 C   0  0  0  0  0  0  0  0  0  0  0  0
  -47.1549  -15.3870  -12.0360 O   0  0  0  0  0  0  0  0  0  0  0  0
  -47.1278  -13.6963  -13.6925 N   0  0  0  0  0  0  0  0  0  0  0  0
  -47.6977  -14.8449  -14.6315 C   0  0  2  0  0  0  0  0  0  0  0  0
  -46.2744  -14.9464  -15.4806 C   0  0  0  0  0  0  0  0  0  0  0  0
  -46.0948  -16.4274  -15.6244 C   0  0  0  0  0  0  0  0  0  0  0  0
  -44.8996  -17.1277  -15.6831 C   0  0  0  0  0  0  0  0  0  0  0  0
  -45.0543  -18.3090  -16.2837 N   0  0  0  0  0  0  0  0  0  0  0  0
  -46.3400  -18.4337  -16.6122 C   0  0  0  0  0  0  0  0  0  0  0  0
  -47.0232  -19.3878  -17.3468 C   0  0  0  0  0  0  0  0  0  0  0  0
  -48.3492  -19.1778  -17.6569 C   0  0  0  0  0  0  0  0  0  0  0  0
  -49.0300  -18.0802  -17.1497 C   0  0  0  0  0  0  0  0  0  0  0  0
  -48.3431  -17.1186  -16.4559 C   0  0  0  0  0  0  0  0  0  0  0  0
  -47.0112  -17.2943  -16.1848 C   0  0  0  0  0  0  0  0  0  0  0  0
  -48.3428  -13.7899  -15.6848 C   0  0  0  0  0  0  0  0  0  0  0  0
  -48.9219  -14.2499  -16.6664 O   0  0  0  0  0  0  0  0  0  0  0  0
  -47.7585  -12.5427  -15.5793 O   0  0  0  0  0  0  0  0  0  0  0  0
  1  2  1  0  0  0  0
  2  3  1  0  0  0  0
  4  2  1  0  0  0  0
  4  5  1  0  0  0  0
  5  6  1  0  0  0  0
  6  7  2  0  0  0  0
  6  8  1  0  0  0  0
  8  9  1  0  0  0  0
  9 10  1  0  0  0  0
 10 11  2  0  0  0  0
 11 12  1  0  0  0  0
 12 13  2  0  0  0  0
 13 14  1  0  0  0  0
 14 15  2  0  0  0  0
  4 16  1  0  0  0  0
 16 17  2  0  0  0  0
 16 18  1  0  0  0  0
 19 18  1  0  0  0  0
 19 20  1  0  0  0  0
 20 21  1  0  0  0  0
 21 22  2  0  0  0  0
 22 23  1  0  0  0  0
 23 24  1  0  0  0  0
 24 25  2  0  0  0  0
 25 26  1  0  0  0  0
 26 27  2  0  0  0  0
 27 28  1  0  0  0  0
 28 29  2  0  0  0  0
 19 30  1  0  0  0  0
 30 31  2  0  0  0  0
 30 32  1  0  0  0  0
 15 10  1  0  0  0  0
 29 21  1  0  0  0  0
 29 24  1  0  0  0  0
M  END
>  <zinc_id>  (712) 
ZINC000001579841

>  <smiles>  (712) 
CC(C)[C@@H](NC(=O)OCc1ccccc1)C(=O)N[C@H](Cc1c[nH]c2ccccc12)C(=O)O

>  <source_line>  (712) 
712

>  <source_data>  (712) 
ZINC000001579841

>  <source_name>  (712) 


>  <source_label>  (712) 
ZINC000001579841

>  <found_by>  (712) 
ZINC

> <Gold.Version>
5.8.1

> <Gold.Id.Protein>
ID|ID_protein|mol2

> <Gold.Goldscore.Fitness>
91.2892

> <Gold.Goldscore.Internal.Vdw>
-3.5732

> <Gold.Goldscore.Internal.Torsion>
-3.2684

> <Gold.Goldscore.External.Vdw>
51.5084

> <Gold.Goldscore.Internal.HBond>
0.0000

> <Gold.Goldscore.External.HBond>
25.1524

> <Gold.Goldscore.Internal.Correction>
-2.1544

> <Gold.Goldscore.Hbonds>
donor molecule, donor type, donor heavy atom, donor atom, acceptor molecule, acceptor atom, score
      P1  H   112  4464       L1    18  0.30
      P1  H   426  4822       L1    31  0.95
      P1  H   435  4829       L1    32  0.70
      P1  H   441  4840       L1    32  0.35
      P1  H   441  4841       L1     5  1.00

> <Gold.Goldscore.Internal.Vdw.Weighted>
-3.5732

> <Gold.Goldscore.Internal.Torsion.Weighted>
-3.2684

> <Gold.Goldscore.External.Vdw.Weighted>
70.8240

> <Gold.Goldscore.Internal.HBond.Weighted>
0.0000

> <Gold.Goldscore.External.HBond.Weighted>
25.1524

> <Gold.Goldscore.Internal.Correction.Weighted>
-2.1544

> <Gold.Protein.RotatedTorsions>
[ 4464  112  111  109 ] final   66.37 input   60.00 | X-H torsion
[ 4839  441  440  439 ] final  -20.66 input   60.00 | X-H torsion
[ 4985  758  757  756 ] final  119.43 input   60.00 | X-H torsion
[ 5271 1023 1022 1020 ] final -130.59 input   60.00 | X-H torsion
[ 6036 1776 1775 1774 ] final   64.33 input   60.00 | X-H torsion
[ 6078 1819 1818 1817 ] final  -37.76 input   60.00 | X-H torsion
[ 6166 1916 1915 1913 ] final -167.32 input   60.00 | X-H torsion
[ 4818   65   64   63 ] final  128.58 input   60.00 | X-H torsion
[ 6268 1997 1996 1994 ] final  179.32 input   60.00 | X-H torsion
[ 8592   72   71   70 ] final   13.50 input   60.00 | X-H torsion
[ 4356  100   99   97 ] final  119.95 input   60.00 | X-H torsion
[ 8510  202  201  200 ] final -112.26 input   60.00 | X-H torsion
[ 5330 1065 1064 1063 ] final   23.28 input   60.00 | X-H torsion
[ 6640 2347 2346 2344 ] final  131.08 input   60.00 | X-H torsion
[ 4452  380  379  378 ] final   36.40 input   60.00 | X-H torsion
[ 4500  391  390  389 ] final  154.70 input   60.00 | X-H torsion

> <Gold.Protein.ActiveResidues>
 THR8    THR9    PRO10   ILE11   TYR12   TYR13   VAL14   ASN15   ALA16   HIS19  
 HIS22   SER25   VAL29   MET46   THR47   GLY48   THR49   ASP50   GLU51   HIS52  
 GLY53   GLN54   LYS55   VAL56   ALA57   GLU58   THR71   PHE78   ILE93   THR95  
 THR96   HIS100  GLU101  VAL104  TRP108  TYR126  VAL128  SER129  ASP130  GLU131 
 SER132  LEU210  SER211  ILE212  SER213  ARG214  LYS215  ARG216  SER218  VAL219 
 MET220  ASN221  TRP222  SER223  ILE224  PRO225  VAL226  HIS232  CYS233  ILE234 
 TYR235  VAL236  TRP237  LEU238  ASP239  ALA240  LEU241  PHE242  ASN243  TYR244 
 TYR245  THR246  HIS275  VAL276  VAL277  GLY278  LYS279  ASP280  ILE281  LEU282 
 LYS283  PHE284  HIS285  ALA286  ILE287  TYR288  TRP289  PRO290  PHE292  LEU304 
 TRP309 

> <Gold.Protein.RotatedAtoms>
  -32.2843   -8.3369   -6.2054 H   0  0  0  0  0  0  0  0  0  0  0  0  # atno 4356 bound_to 100 
  -31.1711   -9.7091   -8.3487 H   0  0  0  0  0  0  0  0  0  0  0  0  # atno 4452 bound_to 380 
  -45.7500  -11.7149  -15.4261 H   0  0  0  0  0  0  0  0  0  0  0  0  # atno 4464 bound_to 112 
  -34.9969   -9.9676  -16.9428 H   0  0  0  0  0  0  0  0  0  0  0  0  # atno 4500 bound_to 391 
  -31.7776  -15.8650   -3.8778 H   0  0  0  0  0  0  0  0  0  0  0  0  # atno 4818 bound_to 65  
  -49.5478  -10.8552  -13.6631 H   0  0  0  0  0  0  0  0  0  0  0  0  # atno 4839 bound_to 441 
  -48.1670  -11.2900  -14.4704 H   0  0  0  0  0  0  0  0  0  0  0  0  # atno 4840 bound_to 441 
  -48.2612  -11.4816  -12.8267 H   0  0  0  0  0  0  0  0  0  0  0  0  # atno 4841 bound_to 441 
  -37.9369  -17.8409  -15.5777 H   0  0  0  0  0  0  0  0  0  0  0  0  # atno 4985 bound_to 758 
  -54.7129  -16.0864  -14.3528 H   0  0  0  0  0  0  0  0  0  0  0  0  # atno 5271 bound_to 1023
  -54.0701  -15.2341   -8.5708 H   0  0  0  0  0  0  0  0  0  0  0  0  # atno 5330 bound_to 1065
  -55.0534  -16.4986  -18.3148 H   0  0  0  0  0  0  0  0  0  0  0  0  # atno 6036 bound_to 1776
  -44.7617  -17.2132  -18.9421 H   0  0  0  0  0  0  0  0  0  0  0  0  # atno 6078 bound_to 1819
  -49.4152  -15.5539  -10.6151 H   0  0  0  0  0  0  0  0  0  0  0  0  # atno 6166 bound_to 1916
  -35.8482  -16.0138   -4.7690 H   0  0  0  0  0  0  0  0  0  0  0  0  # atno 6268 bound_to 1997
  -48.8947  -19.9362   -1.3896 H   0  0  0  0  0  0  0  0  0  0  0  0  # atno 6640 bound_to 2347
  -35.2978   -7.6776   -1.6691 H   0  0  0  0  0  0  0  0  0  0  0  0  # atno 8510 bound_to 202 
  -32.4639   -9.6613   -3.6252 H   0  0  0  0  0  0  0  0  0  0  0  0  # atno 8592 bound_to 72  
  -44.7217  -11.2768  -16.6088 LP  0  0  0  0  0  0  0  0  0  0  0  0  # atno 8618 bound_to 112 
  -45.9337  -10.2766  -16.1646 LP  0  0  0  0  0  0  0  0  0  0  0  0  # atno 8619 bound_to 112 
  -37.2495  -18.0948  -17.0307 LP  0  0  0  0  0  0  0  0  0  0  0  0  # atno 8637 bound_to 758 
  -38.6358  -17.2391  -16.9184 LP  0  0  0  0  0  0  0  0  0  0  0  0  # atno 8638 bound_to 758 
  -54.5156  -17.4732  -15.1810 LP  0  0  0  0  0  0  0  0  0  0  0  0  # atno 8642 bound_to 1023
  -54.2394  -17.4333  -13.5720 LP  0  0  0  0  0  0  0  0  0  0  0  0  # atno 8643 bound_to 1023
  -53.4315  -16.4346  -18.1987 LP  0  0  0  0  0  0  0  0  0  0  0  0  # atno 8662 bound_to 1776
  -54.2664  -17.5798  -17.3875 LP  0  0  0  0  0  0  0  0  0  0  0  0  # atno 8663 bound_to 1776
  -45.9721  -18.1220  -18.3444 LP  0  0  0  0  0  0  0  0  0  0  0  0  # atno 8672 bound_to 1819
  -46.1633  -17.3314  -19.7604 LP  0  0  0  0  0  0  0  0  0  0  0  0  # atno 8673 bound_to 1819
  -50.6341  -15.6760  -11.6862 LP  0  0  0  0  0  0  0  0  0  0  0  0  # atno 8684 bound_to 1916
  -49.2093  -15.0185  -12.1379 LP  0  0  0  0  0  0  0  0  0  0  0  0  # atno 8685 bound_to 1916
  -30.8193  -15.2378   -2.7218 LP  0  0  0  0  0  0  0  0  0  0  0  0  # atno 8712 bound_to 65  
  -30.6752  -16.8092   -3.1420 LP  0  0  0  0  0  0  0  0  0  0  0  0  # atno 8713 bound_to 65  
  -34.8454  -15.0690   -5.6350 LP  0  0  0  0  0  0  0  0  0  0  0  0  # atno 8724 bound_to 1997
  -34.5169  -15.3934   -4.0686 LP  0  0  0  0  0  0  0  0  0  0  0  0  # atno 8725 bound_to 1997
  -32.6330   -9.0256   -5.1136 LP  0  0  0  0  0  0  0  0  0  0  0  0  # atno 8747 bound_to 72  
  -31.4212   -8.5234   -4.1410 LP  0  0  0  0  0  0  0  0  0  0  0  0  # atno 8748 bound_to 72  
  -33.3323   -7.5558   -5.2361 LP  0  0  0  0  0  0  0  0  0  0  0  0  # atno 8749 bound_to 100 
  -32.2852   -6.7102   -6.1609 LP  0  0  0  0  0  0  0  0  0  0  0  0  # atno 8750 bound_to 100 
  -35.6134   -6.6087   -2.8548 LP  0  0  0  0  0  0  0  0  0  0  0  0  # atno 8754 bound_to 202 
  -34.9654   -6.1005   -1.4447 LP  0  0  0  0  0  0  0  0  0  0  0  0  # atno 8755 bound_to 202 
  -53.9772  -16.0235   -7.1508 LP  0  0  0  0  0  0  0  0  0  0  0  0  # atno 8775 bound_to 1065
  -54.7100  -14.5664   -7.2319 LP  0  0  0  0  0  0  0  0  0  0  0  0  # atno 8776 bound_to 1065
  -49.4726  -21.4346   -1.6517 LP  0  0  0  0  0  0  0  0  0  0  0  0  # atno 8779 bound_to 2347
  -49.3285  -20.3832   -2.8929 LP  0  0  0  0  0  0  0  0  0  0  0  0  # atno 8780 bound_to 2347
  -30.8058   -9.0035   -9.7689 LP  0  0  0  0  0  0  0  0  0  0  0  0  # atno 8787 bound_to 380 
  -30.3214   -8.3213   -8.3665 LP  0  0  0  0  0  0  0  0  0  0  0  0  # atno 8788 bound_to 380 

$$$$
