unknown|11k_best|sdf|8321|dock3
  -GOLD-   3 721 1373D 1   1.00000     0.00000

 29 31  0  0  0  0  0  0  0  0  1 V2000
  -39.1755  -13.9689   -7.6118 C   0  0  0  0  0  0  0  0  0  0  0  0
  -40.6863  -13.0532   -7.9812 S   0  0  0  0  0  0  0  0  0  0  0  0
  -42.1006  -13.7864   -7.1550 C   0  0  0  0  0  0  0  0  0  0  0  0
  -42.0227  -15.0000   -6.4932 C   0  0  0  0  0  0  0  0  0  0  0  0
  -43.1637  -15.4898   -5.8692 C   0  0  0  0  0  0  0  0  0  0  0  0
  -44.0731  -14.5249   -5.4535 C   0  0  0  0  0  0  0  0  0  0  0  0
  -44.1799  -13.3074   -6.1134 C   0  0  0  0  0  0  0  0  0  0  0  0
  -43.2557  -13.0191   -7.0976 C   0  0  0  0  0  0  0  0  0  0  0  0
  -43.5280  -12.0940   -8.2252 C   0  0  0  0  0  0  0  0  0  0  0  0
  -44.5249  -12.5983   -9.1370 N   0  0  0  0  0  0  0  0  0  0  0  0
  -43.9171  -12.7352  -10.4381 C   0  0  0  0  0  0  0  0  0  0  0  0
  -44.9754  -12.5204  -11.4920 C   0  0  0  0  0  0  0  0  0  0  0  0
  -46.3003  -13.1524  -11.1031 C   0  0  0  0  0  0  0  0  0  0  0  0
  -47.2615  -12.8808  -12.2538 C   0  0  0  0  0  0  0  0  0  0  0  0
  -47.5241  -14.1817  -12.8651 N   0  0  0  0  0  0  0  0  0  0  0  0
  -47.1960  -14.0396  -14.5587 S   0  0  0  0  0  0  0  0  0  0  0  0
  -48.3739  -13.4693  -15.3077 O   0  0  0  0  0  0  0  0  0  0  0  0
  -46.0555  -13.0758  -14.7578 O   0  0  0  0  0  0  0  0  0  0  0  0
  -46.8307  -15.6112  -15.2531 C   0  0  0  0  0  0  0  0  0  0  0  0
  -47.8697  -16.4311  -15.6734 C   0  0  0  0  0  0  0  0  0  0  0  0
  -47.5064  -17.6057  -16.3192 C   0  0  0  0  0  0  0  0  0  0  0  0
  -46.1706  -17.9455  -16.4790 C   0  0  0  0  0  0  0  0  0  0  0  0
  -45.2784  -17.4281  -15.5534 C   0  0  0  0  0  0  0  0  0  0  0  0
  -43.8512  -17.7063  -15.6999 C   0  0  0  0  0  0  0  0  0  0  0  0
  -42.9008  -17.0072  -14.7945 C   0  0  0  0  0  0  0  0  0  0  0  0
  -43.3965  -18.3943  -16.6409 O   0  0  0  0  0  0  0  0  0  0  0  0
  -45.6441  -16.2497  -14.9146 C   0  0  0  0  0  0  0  0  0  0  0  0
  -46.8128  -12.5794   -9.8045 C   0  0  0  0  0  0  0  0  0  0  0  0
  -45.6993  -11.7338   -9.1984 C   0  0  0  0  0  0  0  0  0  0  0  0
  1  2  1  0  0  0  0
  2  3  1  0  0  0  0
  3  4  2  0  0  0  0
  4  5  1  0  0  0  0
  5  6  2  0  0  0  0
  6  7  1  0  0  0  0
  7  8  2  0  0  0  0
  8  9  1  0  0  0  0
  9 10  1  0  0  0  0
 10 11  1  0  0  0  0
 11 12  1  0  0  0  0
 12 13  1  0  0  0  0
 13 14  1  0  0  0  0
 14 15  1  0  0  0  0
 15 16  1  0  0  0  0
 16 17  2  0  0  0  0
 16 18  2  0  0  0  0
 16 19  1  0  0  0  0
 19 20  2  0  0  0  0
 20 21  1  0  0  0  0
 21 22  2  0  0  0  0
 22 23  1  0  0  0  0
 23 24  1  0  0  0  0
 24 25  1  0  0  0  0
 24 26  2  0  0  0  0
 23 27  2  0  0  0  0
 13 28  1  0  0  0  0
 28 29  1  0  0  0  0
  8  3  1  0  0  0  0
 29 10  1  0  0  0  0
 27 19  1  0  0  0  0
M  END
>  <zinc_id>  (321) 
ZINC000043959584

>  <smiles>  (321) 
CSc1ccccc1CN1CCC(CNS(=O)(=O)c2cccc(C(C)=O)c2)CC1

>  <source_line>  (321) 
321

>  <source_data>  (321) 
ZINC000043959584

>  <source_name>  (321) 


>  <source_label>  (321) 
ZINC000043959584

>  <found_by>  (321) 
ZINC

> <Gold.Version>
5.8.1

> <Gold.Id.Protein>
ID|ID_protein|mol2

> <Gold.Goldscore.Fitness>
73.4347

> <Gold.Goldscore.Internal.Vdw>
2.7632

> <Gold.Goldscore.Internal.Torsion>
-4.7525

> <Gold.Goldscore.External.Vdw>
46.4755

> <Gold.Goldscore.Internal.HBond>
0.0000

> <Gold.Goldscore.External.HBond>
12.1475

> <Gold.Goldscore.Internal.Correction>
0.6273

> <Gold.Goldscore.Hbonds>
donor molecule, donor type, donor heavy atom, donor atom, acceptor molecule, acceptor atom, score
      P1  H   112  4464       L1    18  0.98
      P1  H   426  4822       L1    17  0.03
      P1  H   435  4829       L1    17  0.07
      P1  H   441  4840       L1    18  0.86
      P1  H  1916  6166       L1    15  0.80

> <Gold.Goldscore.Internal.Vdw.Weighted>
2.7632

> <Gold.Goldscore.Internal.Torsion.Weighted>
-4.7525

> <Gold.Goldscore.External.Vdw.Weighted>
63.9038

> <Gold.Goldscore.Internal.HBond.Weighted>
0.0000

> <Gold.Goldscore.External.HBond.Weighted>
12.1475

> <Gold.Goldscore.Internal.Correction.Weighted>
0.6273

> <Gold.Protein.RotatedTorsions>
[ 4464  112  111  109 ] final   50.65 input   60.00 | X-H torsion
[ 4839  441  440  439 ] final   19.20 input   60.00 | X-H torsion
[ 4985  758  757  756 ] final  -45.98 input   60.00 | X-H torsion
[ 5271 1023 1022 1020 ] final   51.85 input   60.00 | X-H torsion
[ 6036 1776 1775 1774 ] final  173.57 input   60.00 | X-H torsion
[ 6078 1819 1818 1817 ] final  -36.18 input   60.00 | X-H torsion
[ 6166 1916 1915 1913 ] final  -62.80 input   60.00 | X-H torsion
[ 4818   65   64   63 ] final  -32.93 input   60.00 | X-H torsion
[ 6268 1997 1996 1994 ] final -160.92 input   60.00 | X-H torsion
[ 8592   72   71   70 ] final   63.50 input   60.00 | X-H torsion
[ 4356  100   99   97 ] final   -5.51 input   60.00 | X-H torsion
[ 8510  202  201  200 ] final  176.99 input   60.00 | X-H torsion
[ 5330 1065 1064 1063 ] final   51.85 input   60.00 | X-H torsion
[ 6640 2347 2346 2344 ] final   95.96 input   60.00 | X-H torsion
[ 4452  380  379  378 ] final   69.30 input   60.00 | X-H torsion
[ 4500  391  390  389 ] final  116.54 input   60.00 | X-H torsion

> <Gold.Protein.ActiveResidues>
 THR8    THR9    PRO10   ILE11   TYR12   TYR13   VAL14   ASN15   ALA16   HIS19  
 HIS22   SER25   VAL29   MET46   THR47   GLY48   THR49   ASP50   GLU51   HIS52  
 GLY53   GLN54   LYS55   VAL56   ALA57   GLU58   THR71   PHE78   ILE93   THR95  
 THR96   HIS100  GLU101  VAL104  TRP108  TYR126  VAL128  SER129  ASP130  GLU131 
 SER132  LEU210  SER211  ILE212  SER213  ARG214  LYS215  ARG216  SER218  VAL219 
 MET220  ASN221  TRP222  SER223  ILE224  PRO225  VAL226  HIS232  CYS233  ILE234 
 TYR235  VAL236  TRP237  LEU238  ASP239  ALA240  LEU241  PHE242  ASN243  TYR244 
 TYR245  THR246  HIS275  VAL276  VAL277  GLY278  LYS279  ASP280  ILE281  LEU282 
 LYS283  PHE284  HIS285  ALA286  ILE287  TYR288  TRP289  PRO290  PHE292  LEU304 
 TRP309 

> <Gold.Protein.RotatedAtoms>
  -33.3261   -7.4664   -5.2426 H   0  0  0  0  0  0  0  0  0  0  0  0  # atno 4356 bound_to 100 
  -30.9552   -9.3851   -7.9887 H   0  0  0  0  0  0  0  0  0  0  0  0  # atno 4452 bound_to 380 
  -45.5512  -11.8470  -15.5190 H   0  0  0  0  0  0  0  0  0  0  0  0  # atno 4464 bound_to 112 
  -35.3259  -10.4692  -16.8209 H   0  0  0  0  0  0  0  0  0  0  0  0  # atno 4500 bound_to 391 
  -30.4665  -15.7840   -2.5777 H   0  0  0  0  0  0  0  0  0  0  0  0  # atno 4818 bound_to 65  
  -49.3064  -10.8665  -14.2690 H   0  0  0  0  0  0  0  0  0  0  0  0  # atno 4839 bound_to 441 
  -47.8052  -11.5029  -13.9712 H   0  0  0  0  0  0  0  0  0  0  0  0  # atno 4840 bound_to 441 
  -48.8644  -11.2574  -12.7201 H   0  0  0  0  0  0  0  0  0  0  0  0  # atno 4841 bound_to 441 
  -37.7426  -17.7343  -17.4217 H   0  0  0  0  0  0  0  0  0  0  0  0  # atno 4985 bound_to 758 
  -54.2767  -17.9055  -14.4231 H   0  0  0  0  0  0  0  0  0  0  0  0  # atno 5271 bound_to 1023
  -54.2933  -14.8397   -8.4814 H   0  0  0  0  0  0  0  0  0  0  0  0  # atno 5330 bound_to 1065
  -54.4401  -17.5695  -17.4160 H   0  0  0  0  0  0  0  0  0  0  0  0  # atno 6036 bound_to 1776
  -44.7651  -17.2008  -18.9645 H   0  0  0  0  0  0  0  0  0  0  0  0  # atno 6078 bound_to 1819
  -49.0452  -15.0188  -11.9453 H   0  0  0  0  0  0  0  0  0  0  0  0  # atno 6166 bound_to 1916
  -35.7388  -16.0461   -4.4687 H   0  0  0  0  0  0  0  0  0  0  0  0  # atno 6268 bound_to 1997
  -49.0033  -20.4009   -1.0871 H   0  0  0  0  0  0  0  0  0  0  0  0  # atno 6640 bound_to 2347
  -35.6439   -7.3630   -2.6470 H   0  0  0  0  0  0  0  0  0  0  0  0  # atno 8510 bound_to 202 
  -31.8276   -9.2304   -3.4363 H   0  0  0  0  0  0  0  0  0  0  0  0  # atno 8592 bound_to 72  
  -44.7779  -11.0440  -16.7045 LP  0  0  0  0  0  0  0  0  0  0  0  0  # atno 8618 bound_to 112 
  -46.0777  -10.3764  -15.9754 LP  0  0  0  0  0  0  0  0  0  0  0  0  # atno 8619 bound_to 112 
  -38.7120  -17.2808  -16.1958 LP  0  0  0  0  0  0  0  0  0  0  0  0  # atno 8637 bound_to 758 
  -37.3691  -18.1604  -15.8962 LP  0  0  0  0  0  0  0  0  0  0  0  0  # atno 8638 bound_to 758 
  -54.4510  -16.5512  -13.5380 LP  0  0  0  0  0  0  0  0  0  0  0  0  # atno 8642 bound_to 1023
  -54.7434  -16.5235  -15.1443 LP  0  0  0  0  0  0  0  0  0  0  0  0  # atno 8643 bound_to 1023
  -54.9550  -16.3773  -18.3967 LP  0  0  0  0  0  0  0  0  0  0  0  0  # atno 8662 bound_to 1776
  -53.3604  -16.5586  -18.0946 LP  0  0  0  0  0  0  0  0  0  0  0  0  # atno 8663 bound_to 1776
  -45.9495  -18.1198  -18.3316 LP  0  0  0  0  0  0  0  0  0  0  0  0  # atno 8672 bound_to 1819
  -46.1825  -17.3460  -19.7506 LP  0  0  0  0  0  0  0  0  0  0  0  0  # atno 8673 bound_to 1819
  -49.6454  -15.6491  -10.5703 LP  0  0  0  0  0  0  0  0  0  0  0  0  # atno 8684 bound_to 1916
  -50.5707  -15.5843  -11.9142 LP  0  0  0  0  0  0  0  0  0  0  0  0  # atno 8685 bound_to 1916
  -31.1493  -16.8385   -3.6121 LP  0  0  0  0  0  0  0  0  0  0  0  0  # atno 8712 bound_to 65  
  -31.6655  -15.2901   -3.5610 LP  0  0  0  0  0  0  0  0  0  0  0  0  # atno 8713 bound_to 65  
  -35.1200  -15.2154   -5.7237 LP  0  0  0  0  0  0  0  0  0  0  0  0  # atno 8724 bound_to 1997
  -34.3526  -15.2144   -4.2823 LP  0  0  0  0  0  0  0  0  0  0  0  0  # atno 8725 bound_to 1997
  -32.9317   -9.5462   -4.5893 LP  0  0  0  0  0  0  0  0  0  0  0  0  # atno 8747 bound_to 72  
  -31.7634   -8.4368   -4.8555 LP  0  0  0  0  0  0  0  0  0  0  0  0  # atno 8748 bound_to 72  
  -32.2290   -6.7572   -6.2129 LP  0  0  0  0  0  0  0  0  0  0  0  0  # atno 8749 bound_to 100 
  -32.3394   -8.3853   -6.1537 LP  0  0  0  0  0  0  0  0  0  0  0  0  # atno 8750 bound_to 100 
  -35.2162   -5.8725   -2.1535 LP  0  0  0  0  0  0  0  0  0  0  0  0  # atno 8754 bound_to 202 
  -35.0142   -7.1536   -1.1612 LP  0  0  0  0  0  0  0  0  0  0  0  0  # atno 8755 bound_to 202 
  -53.8330  -16.1162   -7.5832 LP  0  0  0  0  0  0  0  0  0  0  0  0  # atno 8775 bound_to 1065
  -54.6295  -14.8708   -6.8896 LP  0  0  0  0  0  0  0  0  0  0  0  0  # atno 8776 bound_to 1065
  -49.5729  -21.4298   -2.2118 LP  0  0  0  0  0  0  0  0  0  0  0  0  # atno 8779 bound_to 2347
  -49.1188  -19.9200   -2.6374 LP  0  0  0  0  0  0  0  0  0  0  0  0  # atno 8780 bound_to 2347
  -31.0677   -9.4414   -9.6111 LP  0  0  0  0  0  0  0  0  0  0  0  0  # atno 8787 bound_to 380 
  -30.2769   -8.2098   -8.8869 LP  0  0  0  0  0  0  0  0  0  0  0  0  # atno 8788 bound_to 380 

$$$$
