unknown|11k_best|sdf|8316|dock6
  -GOLD-   3 721 1313D 1   1.00000     0.00000

 28 30  0  0  0  0  0  0  0  0  1 V2000
  -37.8771   -9.5227   -7.0328 C   0  0  0  0  0  0  0  0  0  0  0  0
  -38.9857   -9.4687   -6.9798 O   0  0  0  0  0  0  0  0  0  0  0  0
  -40.0233  -10.3168   -7.3162 C   0  0  0  0  0  0  0  0  0  0  0  0
  -41.3289  -10.0218   -6.9534 C   0  0  0  0  0  0  0  0  0  0  0  0
  -42.3179  -10.6213   -7.7215 C   0  0  0  0  0  0  0  0  0  0  0  0
  -42.1048  -11.8367   -8.3600 C   0  0  0  0  0  0  0  0  0  0  0  0
  -42.9600  -12.2121   -9.4462 N   0  0  0  0  0  0  0  0  0  0  0  0
  -44.2148  -11.5565   -9.5143 C   0  0  0  0  0  0  0  0  0  0  0  0
  -44.5031  -10.5265   -8.8635 O   0  0  0  0  0  0  0  0  0  0  0  0
  -45.1896  -12.0356  -10.4531 N   0  0  0  0  0  0  0  0  0  0  0  0
  -45.7028  -11.0166  -11.3354 C   0  0  0  0  0  0  0  0  0  0  0  0
  -45.5361  -11.5648  -12.7317 C   0  0  0  0  0  0  0  0  0  0  0  0
  -44.8468  -12.8501  -12.6897 C   0  0  0  0  0  0  0  0  0  0  0  0
  -45.7875  -13.9790  -11.9226 C   0  0  2  0  0  0  0  0  0  0  0  0
  -47.2068  -13.1239  -12.0545 C   0  0  0  0  0  0  0  0  0  0  0  0
  -48.0403  -13.9627  -12.8931 N   0  0  0  0  0  0  0  0  0  0  0  0
  -47.4365  -14.0771  -14.4904 S   0  0  0  0  0  0  0  0  0  0  0  0
  -46.6610  -12.8433  -14.8279 O   0  0  0  0  0  0  0  0  0  0  0  0
  -48.6093  -14.2021  -15.4268 O   0  0  0  0  0  0  0  0  0  0  0  0
  -46.3722  -15.4587  -14.6593 C   0  0  0  0  0  0  0  0  0  0  0  0
  -46.5638  -16.6145  -15.4082 C   0  0  0  0  0  0  0  0  0  0  0  0
  -45.6790  -17.5936  -15.0363 C   0  0  0  0  0  0  0  0  0  0  0  0
  -44.3765  -17.1064  -15.0094 C   0  0  0  0  0  0  0  0  0  0  0  0
  -44.6696  -15.5080  -14.4534 S   0  0  0  0  0  0  0  0  0  0  0  0
  -45.4967  -13.3941  -10.4019 C   0  0  0  0  0  0  0  0  0  0  0  0
  -40.8254  -12.3449   -8.3069 C   0  0  0  0  0  0  0  0  0  0  0  0
  -40.6019  -13.7360   -8.8070 C   0  0  0  0  0  0  0  0  0  0  0  0
  -39.7740  -11.5814   -7.8232 C   0  0  0  0  0  0  0  0  0  0  0  0
  1  2  1  0  0  0  0
  2  3  1  0  0  0  0
  3  4  2  0  0  0  0
  4  5  1  0  0  0  0
  5  6  2  0  0  0  0
  6  7  1  0  0  0  0
  7  8  1  0  0  0  0
  8  9  2  0  0  0  0
  8 10  1  0  0  0  0
 10 11  1  0  0  0  0
 11 12  1  0  0  0  0
 12 13  1  0  0  0  0
 13 14  1  0  0  0  0
 14 15  1  0  0  0  0
 15 16  1  0  0  0  0
 16 17  1  0  0  0  0
 17 18  2  0  0  0  0
 17 19  2  0  0  0  0
 17 20  1  0  0  0  0
 20 21  2  0  0  0  0
 21 22  1  0  0  0  0
 22 23  2  0  0  0  0
 23 24  1  0  0  0  0
 14 25  1  0  0  0  0
  6 26  1  0  0  0  0
 26 27  1  0  0  0  0
 26 28  2  0  0  0  0
 28  3  1  0  0  0  0
 25 10  1  0  0  0  0
 24 20  1  0  0  0  0
M  END
>  <zinc_id>  (316) 
ZINC000012577095

>  <smiles>  (316) 
COc1ccc(NC(=O)N2CCC[C@H](CNS(=O)(=O)c3cccs3)C2)c(C)c1

>  <source_line>  (316) 
316

>  <source_data>  (316) 
ZINC000012577095

>  <source_name>  (316) 


>  <source_label>  (316) 
ZINC000012577095

>  <found_by>  (316) 
ZINC

> <Gold.Version>
5.8.1

> <Gold.Id.Protein>
ID|ID_protein|mol2

> <Gold.Goldscore.Fitness>
70.9700

> <Gold.Goldscore.Internal.Vdw>
1.0472

> <Gold.Goldscore.Internal.Torsion>
-22.2374

> <Gold.Goldscore.External.Vdw>
42.7888

> <Gold.Goldscore.Internal.HBond>
0.0000

> <Gold.Goldscore.External.HBond>
14.2976

> <Gold.Goldscore.Internal.Correction>
-19.0281

> <Gold.Goldscore.Hbonds>
donor molecule, donor type, donor heavy atom, donor atom, acceptor molecule, acceptor atom, score
      P1  H   112  4464       L1    18  0.84
      P1  H   426  4822       L1    19  0.31
      P1  H   441  4839       L1    18  1.00
      P1  H  1916  6166       L1    16  1.00

> <Gold.Goldscore.Internal.Vdw.Weighted>
1.0472

> <Gold.Goldscore.Internal.Torsion.Weighted>
-22.2374

> <Gold.Goldscore.External.Vdw.Weighted>
58.8346

> <Gold.Goldscore.Internal.HBond.Weighted>
0.0000

> <Gold.Goldscore.External.HBond.Weighted>
14.2976

> <Gold.Goldscore.Internal.Correction.Weighted>
-19.0281

> <Gold.Protein.RotatedTorsions>
[ 4464  112  111  109 ] final   58.39 input   60.00 | X-H torsion
[ 4839  441  440  439 ] final  132.70 input   60.00 | X-H torsion
[ 4985  758  757  756 ] final   18.23 input   60.00 | X-H torsion
[ 5271 1023 1022 1020 ] final -168.19 input   60.00 | X-H torsion
[ 6036 1776 1775 1774 ] final   58.08 input   60.00 | X-H torsion
[ 6078 1819 1818 1817 ] final  148.69 input   60.00 | X-H torsion
[ 6166 1916 1915 1913 ] final  -65.29 input   60.00 | X-H torsion
[ 4818   65   64   63 ] final   90.60 input   60.00 | X-H torsion
[ 6268 1997 1996 1994 ] final  -26.31 input   60.00 | X-H torsion
[ 8592   72   71   70 ] final  143.10 input   60.00 | X-H torsion
[ 4356  100   99   97 ] final  -60.03 input   60.00 | X-H torsion
[ 8510  202  201  200 ] final -170.52 input   60.00 | X-H torsion
[ 5330 1065 1064 1063 ] final -143.48 input   60.00 | X-H torsion
[ 6640 2347 2346 2344 ] final -121.02 input   60.00 | X-H torsion
[ 4452  380  379  378 ] final -114.62 input   60.00 | X-H torsion
[ 4500  391  390  389 ] final  -68.66 input   60.00 | X-H torsion

> <Gold.Protein.ActiveResidues>
 THR8    THR9    PRO10   ILE11   TYR12   TYR13   VAL14   ASN15   ALA16   HIS19  
 HIS22   SER25   VAL29   MET46   THR47   GLY48   THR49   ASP50   GLU51   HIS52  
 GLY53   GLN54   LYS55   VAL56   ALA57   GLU58   THR71   PHE78   ILE93   THR95  
 THR96   HIS100  GLU101  VAL104  TRP108  TYR126  VAL128  SER129  ASP130  GLU131 
 SER132  LEU210  SER211  ILE212  SER213  ARG214  LYS215  ARG216  SER218  VAL219 
 MET220  ASN221  TRP222  SER223  ILE224  PRO225  VAL226  HIS232  CYS233  ILE234 
 TYR235  VAL236  TRP237  LEU238  ASP239  ALA240  LEU241  PHE242  ASN243  TYR244 
 TYR245  THR246  HIS275  VAL276  VAL277  GLY278  LYS279  ASP280  ILE281  LEU282 
 LYS283  PHE284  HIS285  ALA286  ILE287  TYR288  TRP289  PRO290  PHE292  LEU304 
 TRP309 

> <Gold.Protein.RotatedAtoms>
  -32.9842   -6.7355   -5.5333 H   0  0  0  0  0  0  0  0  0  0  0  0  # atno 4356 bound_to 100 
  -30.5457   -8.5951   -9.6349 H   0  0  0  0  0  0  0  0  0  0  0  0  # atno 4452 bound_to 380 
  -45.6508  -11.7885  -15.4677 H   0  0  0  0  0  0  0  0  0  0  0  0  # atno 4464 bound_to 112 
  -33.6436  -10.5312  -16.0056 H   0  0  0  0  0  0  0  0  0  0  0  0  # atno 4500 bound_to 391 
  -31.6830  -15.3328   -3.5966 H   0  0  0  0  0  0  0  0  0  0  0  0  # atno 4818 bound_to 65  
  -47.8395  -11.4755  -14.0703 H   0  0  0  0  0  0  0  0  0  0  0  0  # atno 4839 bound_to 441 
  -48.7649  -11.2985  -12.7066 H   0  0  0  0  0  0  0  0  0  0  0  0  # atno 4840 bound_to 441 
  -49.3714  -10.8527  -14.1834 H   0  0  0  0  0  0  0  0  0  0  0  0  # atno 4841 bound_to 441 
  -37.1609  -18.1824  -16.7501 H   0  0  0  0  0  0  0  0  0  0  0  0  # atno 4985 bound_to 758 
  -54.7635  -16.2892  -14.9188 H   0  0  0  0  0  0  0  0  0  0  0  0  # atno 5271 bound_to 1023
  -54.3356  -15.5065   -6.7502 H   0  0  0  0  0  0  0  0  0  0  0  0  # atno 5330 bound_to 1065
  -54.9965  -16.4291  -18.3634 H   0  0  0  0  0  0  0  0  0  0  0  0  # atno 6036 bound_to 1776
  -46.4800  -17.9474  -18.9987 H   0  0  0  0  0  0  0  0  0  0  0  0  # atno 6078 bound_to 1819
  -49.0228  -15.0208  -11.9113 H   0  0  0  0  0  0  0  0  0  0  0  0  # atno 6166 bound_to 1916
  -34.2892  -15.1068   -4.4860 H   0  0  0  0  0  0  0  0  0  0  0  0  # atno 6268 bound_to 1997
  -49.2540  -20.2090   -2.8346 H   0  0  0  0  0  0  0  0  0  0  0  0  # atno 6640 bound_to 2347
  -35.6104   -7.5085   -2.5084 H   0  0  0  0  0  0  0  0  0  0  0  0  # atno 8510 bound_to 202 
  -31.4514   -8.4756   -4.2878 H   0  0  0  0  0  0  0  0  0  0  0  0  # atno 8592 bound_to 72  
  -44.7434  -11.1593  -16.6630 LP  0  0  0  0  0  0  0  0  0  0  0  0  # atno 8618 bound_to 112 
  -46.0119  -10.3200  -16.0686 LP  0  0  0  0  0  0  0  0  0  0  0  0  # atno 8619 bound_to 112 
  -38.4707  -17.3117  -17.1679 LP  0  0  0  0  0  0  0  0  0  0  0  0  # atno 8637 bound_to 758 
  -38.1962  -17.6782  -15.6004 LP  0  0  0  0  0  0  0  0  0  0  0  0  # atno 8638 bound_to 758 
  -54.3436  -17.8508  -14.7372 LP  0  0  0  0  0  0  0  0  0  0  0  0  # atno 8642 bound_to 1023
  -54.3605  -16.8515  -13.4458 LP  0  0  0  0  0  0  0  0  0  0  0  0  # atno 8643 bound_to 1023
  -53.3865  -16.5051  -18.1390 LP  0  0  0  0  0  0  0  0  0  0  0  0  # atno 8662 bound_to 1776
  -54.3686  -17.5791  -17.3983 LP  0  0  0  0  0  0  0  0  0  0  0  0  # atno 8663 bound_to 1776
  -45.3825  -16.9977  -19.7347 LP  0  0  0  0  0  0  0  0  0  0  0  0  # atno 8672 bound_to 1819
  -45.0224  -17.7162  -18.3131 LP  0  0  0  0  0  0  0  0  0  0  0  0  # atno 8673 bound_to 1819
  -49.6839  -15.6632  -10.5703 LP  0  0  0  0  0  0  0  0  0  0  0  0  # atno 8684 bound_to 1916
  -50.5548  -15.5682  -11.9484 LP  0  0  0  0  0  0  0  0  0  0  0  0  # atno 8685 bound_to 1916
  -30.4833  -15.7285   -2.5709 LP  0  0  0  0  0  0  0  0  0  0  0  0  # atno 8712 bound_to 65  
  -31.1064  -16.8544   -3.5762 LP  0  0  0  0  0  0  0  0  0  0  0  0  # atno 8713 bound_to 65  
  -35.6112  -16.0300   -4.2672 LP  0  0  0  0  0  0  0  0  0  0  0  0  # atno 8724 bound_to 1997
  -35.3212  -15.3458   -5.7213 LP  0  0  0  0  0  0  0  0  0  0  0  0  # atno 8725 bound_to 1997
  -32.3467   -9.6071   -3.5354 LP  0  0  0  0  0  0  0  0  0  0  0  0  # atno 8747 bound_to 72  
  -32.7273   -9.1360   -5.0519 LP  0  0  0  0  0  0  0  0  0  0  0  0  # atno 8748 bound_to 72  
  -31.9329   -7.5163   -6.4993 LP  0  0  0  0  0  0  0  0  0  0  0  0  # atno 8749 bound_to 100 
  -32.9798   -8.3623   -5.5746 LP  0  0  0  0  0  0  0  0  0  0  0  0  # atno 8750 bound_to 100 
  -35.2972   -5.9210   -2.3356 LP  0  0  0  0  0  0  0  0  0  0  0  0  # atno 8754 bound_to 202 
  -34.9668   -6.9585   -1.1187 LP  0  0  0  0  0  0  0  0  0  0  0  0  # atno 8755 bound_to 202 
  -54.6032  -14.4568   -7.9645 LP  0  0  0  0  0  0  0  0  0  0  0  0  # atno 8775 bound_to 1065
  -53.8167  -15.8588   -8.2517 LP  0  0  0  0  0  0  0  0  0  0  0  0  # atno 8776 bound_to 1065
  -48.9195  -20.0726   -1.2479 LP  0  0  0  0  0  0  0  0  0  0  0  0  # atno 8779 bound_to 2347
  -49.5198  -21.4704   -1.8415 LP  0  0  0  0  0  0  0  0  0  0  0  0  # atno 8780 bound_to 2347
  -30.4954   -8.6312   -8.0088 LP  0  0  0  0  0  0  0  0  0  0  0  0  # atno 8787 bound_to 380 
  -31.2617   -9.8156   -8.8313 LP  0  0  0  0  0  0  0  0  0  0  0  0  # atno 8788 bound_to 380 

$$$$
