unknown|11k_best|sdf|8268|dock6
  -GOLD-   3 721 0293D 1   1.00000     0.00000

 29 31  0  0  0  0  0  0  0  0  1 V2000
  -40.6076  -16.8952  -14.3521 C   0  0  0  0  0  0  0  0  0  0  0  0
  -42.0000  -17.0845  -14.4344 O   0  0  0  0  0  0  0  0  0  0  0  0
  -42.9048  -16.0544  -14.1914 C   0  0  0  0  0  0  0  0  0  0  0  0
  -42.4659  -15.0060  -13.6791 O   0  0  0  0  0  0  0  0  0  0  0  0
  -44.3297  -16.3592  -14.3178 C   0  0  0  0  0  0  0  0  0  0  0  0
  -45.2797  -15.4346  -13.9043 C   0  0  0  0  0  0  0  0  0  0  0  0
  -46.5807  -15.4863  -14.3288 C   0  0  0  0  0  0  0  0  0  0  0  0
  -47.5518  -14.0399  -14.3716 S   0  0  0  0  0  0  0  0  0  0  0  0
  -46.5925  -12.8997  -14.6363 O   0  0  0  0  0  0  0  0  0  0  0  0
  -48.5289  -14.0364  -15.5056 O   0  0  0  0  0  0  0  0  0  0  0  0
  -48.2849  -13.7342  -12.8538 N   0  0  0  0  0  0  0  0  0  0  0  0
  -47.5891  -13.1588  -11.7402 C   0  0  0  0  0  0  0  0  0  0  0  0
  -46.2265  -12.8896  -11.7882 C   0  0  0  0  0  0  0  0  0  0  0  0
  -45.4038  -13.2499  -10.7270 C   0  0  0  0  0  0  0  0  0  0  0  0
  -45.9154  -13.7734   -9.5469 C   0  0  0  0  0  0  0  0  0  0  0  0
  -45.1936  -14.7871   -8.9076 O   0  0  0  0  0  0  0  0  0  0  0  0
  -45.5983  -15.2699   -7.6395 C   0  0  0  0  0  0  0  0  0  0  0  0
  -44.4349  -15.0880   -6.7226 C   0  0  0  0  0  0  0  0  0  0  0  0
  -43.4318  -16.0425   -6.7502 C   0  0  0  0  0  0  0  0  0  0  0  0
  -42.2111  -15.8420   -6.1192 C   0  0  0  0  0  0  0  0  0  0  0  0
  -41.9752  -14.5811   -5.6251 C   0  0  0  0  0  0  0  0  0  0  0  0
  -43.0510  -13.7698   -5.3427 C   0  0  0  0  0  0  0  0  0  0  0  0
  -44.2372  -13.9094   -6.0509 C   0  0  0  0  0  0  0  0  0  0  0  0
  -47.2859  -13.6303   -9.3750 C   0  0  0  0  0  0  0  0  0  0  0  0
  -48.1040  -13.3715  -10.4676 C   0  0  0  0  0  0  0  0  0  0  0  0
  -46.9806  -16.6393  -14.9815 C   0  0  0  0  0  0  0  0  0  0  0  0
  -46.0380  -17.5662  -15.4081 C   0  0  0  0  0  0  0  0  0  0  0  0
  -44.6815  -17.3160  -15.2586 C   0  0  0  0  0  0  0  0  0  0  0  0
  -43.5218  -17.8862  -16.4556 Cl  0  0  0  0  0  0  0  0  0  0  0  0
  1  2  1  0  0  0  0
  2  3  1  0  0  0  0
  3  4  2  0  0  0  0
  3  5  1  0  0  0  0
  5  6  2  0  0  0  0
  6  7  1  0  0  0  0
  7  8  1  0  0  0  0
  8  9  2  0  0  0  0
  8 10  2  0  0  0  0
  8 11  1  0  0  0  0
 11 12  1  0  0  0  0
 12 13  2  0  0  0  0
 13 14  1  0  0  0  0
 14 15  2  0  0  0  0
 15 16  1  0  0  0  0
 16 17  1  0  0  0  0
 17 18  1  0  0  0  0
 18 19  2  0  0  0  0
 19 20  1  0  0  0  0
 20 21  2  0  0  0  0
 21 22  1  0  0  0  0
 22 23  2  0  0  0  0
 15 24  1  0  0  0  0
 24 25  2  0  0  0  0
  7 26  2  0  0  0  0
 26 27  1  0  0  0  0
 27 28  2  0  0  0  0
 28 29  1  0  0  0  0
 28  5  1  0  0  0  0
 25 12  1  0  0  0  0
 23 18  1  0  0  0  0
M  END
>  <zinc_id>  (268) 
ZINC000223828642

>  <smiles>  (268) 
COC(=O)c1cc(S(=O)(=O)Nc2ccc(OCc3ccccc3)cc2)ccc1Cl

>  <source_line>  (268) 
268

>  <source_data>  (268) 
ZINC000223828642

>  <source_name>  (268) 


>  <source_label>  (268) 
ZINC000223828642

>  <found_by>  (268) 
ZINC

> <Gold.Version>
5.8.1

> <Gold.Id.Protein>
ID|ID_protein|mol2

> <Gold.Goldscore.Fitness>
70.6757

> <Gold.Goldscore.Internal.Vdw>
1.9766

> <Gold.Goldscore.Internal.Torsion>
-8.7810

> <Gold.Goldscore.External.Vdw>
46.9667

> <Gold.Goldscore.Internal.HBond>
0.0000

> <Gold.Goldscore.External.HBond>
10.7078

> <Gold.Goldscore.Internal.Correction>
-2.1931

> <Gold.Goldscore.Hbonds>
donor molecule, donor type, donor heavy atom, donor atom, acceptor molecule, acceptor atom, score
      P1  H   426  4822       L1    10  0.28
      P1  H   441  4839       L1     9  1.00
      P1  H  1916  6166       L1    11  0.69

> <Gold.Goldscore.Internal.Vdw.Weighted>
1.9766

> <Gold.Goldscore.Internal.Torsion.Weighted>
-8.7810

> <Gold.Goldscore.External.Vdw.Weighted>
64.5792

> <Gold.Goldscore.Internal.HBond.Weighted>
0.0000

> <Gold.Goldscore.External.HBond.Weighted>
10.7078

> <Gold.Goldscore.Internal.Correction.Weighted>
-2.1931

> <Gold.Protein.RotatedTorsions>
[ 4464  112  111  109 ] final  136.47 input   60.00 | X-H torsion
[ 4839  441  440  439 ] final  147.73 input   60.00 | X-H torsion
[ 4985  758  757  756 ] final  -51.59 input   60.00 | X-H torsion
[ 5271 1023 1022 1020 ] final -117.77 input   60.00 | X-H torsion
[ 6036 1776 1775 1774 ] final  -37.38 input   60.00 | X-H torsion
[ 6078 1819 1818 1817 ] final   25.40 input   60.00 | X-H torsion
[ 6166 1916 1915 1913 ] final  -64.33 input   60.00 | X-H torsion
[ 4818   65   64   63 ] final  -29.12 input   60.00 | X-H torsion
[ 6268 1997 1996 1994 ] final  -64.75 input   60.00 | X-H torsion
[ 8592   72   71   70 ] final  -29.60 input   60.00 | X-H torsion
[ 4356  100   99   97 ] final   -9.42 input   60.00 | X-H torsion
[ 8510  202  201  200 ] final  -76.41 input   60.00 | X-H torsion
[ 5330 1065 1064 1063 ] final  169.56 input   60.00 | X-H torsion
[ 6640 2347 2346 2344 ] final  154.89 input   60.00 | X-H torsion
[ 4452  380  379  378 ] final   91.17 input   60.00 | X-H torsion
[ 4500  391  390  389 ] final   43.02 input   60.00 | X-H torsion

> <Gold.Protein.ActiveResidues>
 THR8    THR9    PRO10   ILE11   TYR12   TYR13   VAL14   ASN15   ALA16   HIS19  
 HIS22   SER25   VAL29   MET46   THR47   GLY48   THR49   ASP50   GLU51   HIS52  
 GLY53   GLN54   LYS55   VAL56   ALA57   GLU58   THR71   PHE78   ILE93   THR95  
 THR96   HIS100  GLU101  VAL104  TRP108  TYR126  VAL128  SER129  ASP130  GLU131 
 SER132  LEU210  SER211  ILE212  SER213  ARG214  LYS215  ARG216  SER218  VAL219 
 MET220  ASN221  TRP222  SER223  ILE224  PRO225  VAL226  HIS232  CYS233  ILE234 
 TYR235  VAL236  TRP237  LEU238  ASP239  ALA240  LEU241  PHE242  ASN243  TYR244 
 TYR245  THR246  HIS275  VAL276  VAL277  GLY278  LYS279  ASP280  ILE281  LEU282 
 LYS283  PHE284  HIS285  ALA286  ILE287  TYR288  TRP289  PRO290  PHE292  LEU304 
 TRP309 

> <Gold.Protein.RotatedAtoms>
  -33.3202   -7.4029   -5.2464 H   0  0  0  0  0  0  0  0  0  0  0  0  # atno 4356 bound_to 100 
  -30.7727   -9.0953   -7.8943 H   0  0  0  0  0  0  0  0  0  0  0  0  # atno 4452 bound_to 380 
  -46.2175  -10.7638  -15.6074 H   0  0  0  0  0  0  0  0  0  0  0  0  # atno 4464 bound_to 112 
  -34.9647  -11.3200  -16.1873 H   0  0  0  0  0  0  0  0  0  0  0  0  # atno 4500 bound_to 391 
  -30.4876  -15.7253   -2.5773 H   0  0  0  0  0  0  0  0  0  0  0  0  # atno 4818 bound_to 65  
  -47.7768  -11.5332  -13.8351 H   0  0  0  0  0  0  0  0  0  0  0  0  # atno 4839 bound_to 441 
  -48.9905  -11.2023  -12.7559 H   0  0  0  0  0  0  0  0  0  0  0  0  # atno 4840 bound_to 441 
  -49.2085  -10.8914  -14.3693 H   0  0  0  0  0  0  0  0  0  0  0  0  # atno 4841 bound_to 441 
  -37.8188  -17.6849  -17.4341 H   0  0  0  0  0  0  0  0  0  0  0  0  # atno 4985 bound_to 758 
  -54.6722  -16.1040  -14.1485 H   0  0  0  0  0  0  0  0  0  0  0  0  # atno 5271 bound_to 1023
  -54.6391  -14.8457   -6.9166 H   0  0  0  0  0  0  0  0  0  0  0  0  # atno 5330 bound_to 1065
  -53.6207  -16.2638  -18.3542 H   0  0  0  0  0  0  0  0  0  0  0  0  # atno 6036 bound_to 1776
  -45.3357  -16.9968  -19.7071 H   0  0  0  0  0  0  0  0  0  0  0  0  # atno 6078 bound_to 1819
  -49.0312  -15.0200  -11.9245 H   0  0  0  0  0  0  0  0  0  0  0  0  # atno 6166 bound_to 1916
  -34.5621  -15.4347   -4.0411 H   0  0  0  0  0  0  0  0  0  0  0  0  # atno 6268 bound_to 1997
  -48.8899  -19.7480   -1.7267 H   0  0  0  0  0  0  0  0  0  0  0  0  # atno 6640 bound_to 2347
  -35.0789   -7.3403   -1.2563 H   0  0  0  0  0  0  0  0  0  0  0  0  # atno 8510 bound_to 202 
  -32.8600   -9.6991   -4.1863 H   0  0  0  0  0  0  0  0  0  0  0  0  # atno 8592 bound_to 72  
  -45.1171  -11.9382  -15.8480 LP  0  0  0  0  0  0  0  0  0  0  0  0  # atno 8618 bound_to 112 
  -45.0676  -10.5731  -16.7429 LP  0  0  0  0  0  0  0  0  0  0  0  0  # atno 8619 bound_to 112 
  -38.6872  -17.3069  -16.1108 LP  0  0  0  0  0  0  0  0  0  0  0  0  # atno 8637 bound_to 758 
  -37.3171  -18.1840  -15.9687 LP  0  0  0  0  0  0  0  0  0  0  0  0  # atno 8638 bound_to 758 
  -54.5755  -17.2879  -15.2608 LP  0  0  0  0  0  0  0  0  0  0  0  0  # atno 8642 bound_to 1023
  -54.2204  -17.6010  -13.6979 LP  0  0  0  0  0  0  0  0  0  0  0  0  # atno 8643 bound_to 1023
  -53.9709  -17.5313  -17.3956 LP  0  0  0  0  0  0  0  0  0  0  0  0  # atno 8662 bound_to 1776
  -55.1697  -16.7194  -18.1509 LP  0  0  0  0  0  0  0  0  0  0  0  0  # atno 8663 bound_to 1776
  -45.0600  -17.7474  -18.2898 LP  0  0  0  0  0  0  0  0  0  0  0  0  # atno 8672 bound_to 1819
  -46.4974  -17.9239  -19.0446 LP  0  0  0  0  0  0  0  0  0  0  0  0  # atno 8673 bound_to 1819
  -49.6691  -15.6578  -10.5701 LP  0  0  0  0  0  0  0  0  0  0  0  0  # atno 8684 bound_to 1916
  -50.5611  -15.5744  -11.9354 LP  0  0  0  0  0  0  0  0  0  0  0  0  # atno 8685 bound_to 1916
  -31.1029  -16.8555   -3.5733 LP  0  0  0  0  0  0  0  0  0  0  0  0  # atno 8712 bound_to 65  
  -31.6905  -15.3322   -3.6003 LP  0  0  0  0  0  0  0  0  0  0  0  0  # atno 8713 bound_to 65  
  -35.8664  -16.0010   -4.8324 LP  0  0  0  0  0  0  0  0  0  0  0  0  # atno 8724 bound_to 1997
  -34.7911  -15.0446   -5.6042 LP  0  0  0  0  0  0  0  0  0  0  0  0  # atno 8725 bound_to 1997
  -32.0963   -8.5880   -5.0974 LP  0  0  0  0  0  0  0  0  0  0  0  0  # atno 8747 bound_to 72  
  -31.5590   -8.9229   -3.5921 LP  0  0  0  0  0  0  0  0  0  0  0  0  # atno 8748 bound_to 72  
  -32.1910   -6.7952   -6.2482 LP  0  0  0  0  0  0  0  0  0  0  0  0  # atno 8749 bound_to 100 
  -32.3834   -8.4113   -6.1146 LP  0  0  0  0  0  0  0  0  0  0  0  0  # atno 8750 bound_to 100 
  -35.6659   -7.1797   -2.7655 LP  0  0  0  0  0  0  0  0  0  0  0  0  # atno 8754 bound_to 202 
  -35.1334   -5.8692   -1.9497 LP  0  0  0  0  0  0  0  0  0  0  0  0  # atno 8755 bound_to 202 
  -54.2731  -14.8647   -8.5021 LP  0  0  0  0  0  0  0  0  0  0  0  0  # atno 8775 bound_to 1065
  -53.8411  -16.1164   -7.5465 LP  0  0  0  0  0  0  0  0  0  0  0  0  # atno 8776 bound_to 1065
  -49.3510  -21.2568   -1.3280 LP  0  0  0  0  0  0  0  0  0  0  0  0  # atno 8779 bound_to 2347
  -49.4550  -20.7506   -2.8771 LP  0  0  0  0  0  0  0  0  0  0  0  0  # atno 8780 bound_to 2347
  -31.1927   -9.6635   -9.3602 LP  0  0  0  0  0  0  0  0  0  0  0  0  # atno 8787 bound_to 380 
  -30.3357   -8.2794   -9.2327 LP  0  0  0  0  0  0  0  0  0  0  0  0  # atno 8788 bound_to 380 

$$$$
