unknown|11k_best|sdf|8298|dock7
  -GOLD-   3 721 1 73D 1   1.00000     0.00000

 29 30  0  0  0  0  0  0  0  0  1 V2000
  -43.5818  -18.9362  -16.9765 C   0  0  0  0  0  0  0  0  0  0  0  0
  -43.6613  -18.8233  -15.4716 C   0  0  0  0  0  0  0  0  0  0  0  0
  -44.2235  -17.5205  -15.0569 C   0  0  0  0  0  0  0  0  0  0  0  0
  -45.5857  -17.3975  -14.9280 C   0  0  0  0  0  0  0  0  0  0  0  0
  -46.0727  -16.1579  -14.5498 C   0  0  0  0  0  0  0  0  0  0  0  0
  -45.2892  -15.0167  -14.5975 C   0  0  0  0  0  0  0  0  0  0  0  0
  -45.8394  -13.7645  -15.0228 N   0  0  0  0  0  0  0  0  0  0  0  0
  -47.1330  -13.3270  -14.6167 C   0  0  0  0  0  0  0  0  0  0  0  0
  -47.6474  -12.3769  -15.2702 O   0  0  0  0  0  0  0  0  0  0  0  0
  -48.0647  -14.2579  -13.9061 C   0  0  0  0  0  0  0  0  0  0  0  0
  -47.4519  -14.5716  -12.6690 O   0  0  0  0  0  0  0  0  0  0  0  0
  -47.3354  -13.6051  -11.6664 C   0  0  0  0  0  0  0  0  0  0  0  0
  -48.1074  -12.6230  -11.7530 O   0  0  0  0  0  0  0  0  0  0  0  0
  -46.7389  -14.0682  -10.3774 C   0  0  0  0  0  0  0  0  0  0  0  0
  -47.7667  -13.9828   -9.2663 C   0  0  0  0  0  0  0  0  0  0  0  0
  -47.3452  -14.8018   -8.0528 C   0  0  0  0  0  0  0  0  0  0  0  0
  -47.1780  -13.8151   -6.9405 C   0  0  0  0  0  0  0  0  0  0  0  0
  -48.0912  -12.9909   -6.6394 O   0  0  0  0  0  0  0  0  0  0  0  0
  -46.1154  -13.9390   -5.9973 N   0  0  0  0  0  0  0  0  0  0  0  0
  -45.1073  -14.9470   -6.1275 C   0  0  0  0  0  0  0  0  0  0  0  0
  -44.9609  -15.6429   -7.3215 C   0  0  0  0  0  0  0  0  0  0  0  0
  -43.7073  -15.9821   -7.8167 C   0  0  0  0  0  0  0  0  0  0  0  0
  -42.5574  -15.5792   -7.1487 C   0  0  0  0  0  0  0  0  0  0  0  0
  -41.1310  -15.0137   -8.0124 Cl  0  0  0  0  0  0  0  0  0  0  0  0
  -42.7380  -15.2952   -5.7999 C   0  0  0  0  0  0  0  0  0  0  0  0
  -41.2779  -15.1163   -4.8322 Cl  0  0  0  0  0  0  0  0  0  0  0  0
  -43.9903  -14.9582   -5.2999 C   0  0  0  0  0  0  0  0  0  0  0  0
  -43.9133  -15.1778  -14.6815 C   0  0  0  0  0  0  0  0  0  0  0  0
  -43.3960  -16.4613  -14.7486 C   0  0  0  0  0  0  0  0  0  0  0  0
  1  2  1  0  0  0  0
  2  3  1  0  0  0  0
  3  4  2  0  0  0  0
  4  5  1  0  0  0  0
  5  6  2  0  0  0  0
  6  7  1  0  0  0  0
  7  8  1  0  0  0  0
  8  9  2  0  0  0  0
  8 10  1  0  0  0  0
 10 11  1  0  0  0  0
 11 12  1  0  0  0  0
 12 13  2  0  0  0  0
 12 14  1  0  0  0  0
 14 15  1  0  0  0  0
 15 16  1  0  0  0  0
 16 17  1  0  0  0  0
 17 18  2  0  0  0  0
 17 19  1  0  0  0  0
 19 20  1  0  0  0  0
 20 21  2  0  0  0  0
 21 22  1  0  0  0  0
 22 23  2  0  0  0  0
 23 24  1  0  0  0  0
 23 25  1  0  0  0  0
 25 26  1  0  0  0  0
 25 27  2  0  0  0  0
  6 28  1  0  0  0  0
 28 29  2  0  0  0  0
 29  3  1  0  0  0  0
 27 20  1  0  0  0  0
M  END
>  <zinc_id>  (298) 
ZINC000408660993

>  <smiles>  (298) 
CCc1ccc(NC(=O)COC(=O)CCCC(=O)Nc2ccc(Cl)c(Cl)c2)cc1

>  <source_line>  (298) 
298

>  <source_data>  (298) 
ZINC000408660993

>  <source_name>  (298) 


>  <source_label>  (298) 
ZINC000408660993

>  <found_by>  (298) 
ZINC

> <Gold.Version>
5.8.1

> <Gold.Id.Protein>
ID|ID_protein|mol2

> <Gold.Goldscore.Fitness>
72.7459

> <Gold.Goldscore.Internal.Vdw>
0.6974

> <Gold.Goldscore.Internal.Torsion>
-11.7445

> <Gold.Goldscore.External.Vdw>
50.3590

> <Gold.Goldscore.Internal.HBond>
0.0000

> <Gold.Goldscore.External.HBond>
12.3076

> <Gold.Goldscore.Internal.Correction>
-2.2418

> <Gold.Goldscore.Hbonds>
donor molecule, donor type, donor heavy atom, donor atom, acceptor molecule, acceptor atom, score
      P1  H   112  4464       L1     7  0.87
      P1  H   435  4829       L1     9  0.61
      P1  H   441  4839       L1    13  0.67
      P1  H   441  4841       L1     9  0.31

> <Gold.Goldscore.Internal.Vdw.Weighted>
0.6974

> <Gold.Goldscore.Internal.Torsion.Weighted>
-11.7445

> <Gold.Goldscore.External.Vdw.Weighted>
69.2436

> <Gold.Goldscore.Internal.HBond.Weighted>
0.0000

> <Gold.Goldscore.External.HBond.Weighted>
12.3076

> <Gold.Goldscore.Internal.Correction.Weighted>
-2.2418

> <Gold.Protein.RotatedTorsions>
[ 4464  112  111  109 ] final   52.99 input   60.00 | X-H torsion
[ 4839  441  440  439 ] final -139.44 input   60.00 | X-H torsion
[ 4985  758  757  756 ] final -166.65 input   60.00 | X-H torsion
[ 5271 1023 1022 1020 ] final  -85.35 input   60.00 | X-H torsion
[ 6036 1776 1775 1774 ] final -106.45 input   60.00 | X-H torsion
[ 6078 1819 1818 1817 ] final  -27.41 input   60.00 | X-H torsion
[ 6166 1916 1915 1913 ] final   20.68 input   60.00 | X-H torsion
[ 4818   65   64   63 ] final   38.91 input   60.00 | X-H torsion
[ 6268 1997 1996 1994 ] final  157.12 input   60.00 | X-H torsion
[ 8592   72   71   70 ] final   13.10 input   60.00 | X-H torsion
[ 4356  100   99   97 ] final   44.89 input   60.00 | X-H torsion
[ 8510  202  201  200 ] final -136.88 input   60.00 | X-H torsion
[ 5330 1065 1064 1063 ] final   39.16 input   60.00 | X-H torsion
[ 6640 2347 2346 2344 ] final  -23.92 input   60.00 | X-H torsion
[ 4452  380  379  378 ] final  123.46 input   60.00 | X-H torsion
[ 4500  391  390  389 ] final  146.21 input   60.00 | X-H torsion

> <Gold.Protein.ActiveResidues>
 THR8    THR9    PRO10   ILE11   TYR12   TYR13   VAL14   ASN15   ALA16   HIS19  
 HIS22   SER25   VAL29   MET46   THR47   GLY48   THR49   ASP50   GLU51   HIS52  
 GLY53   GLN54   LYS55   VAL56   ALA57   GLU58   THR71   PHE78   ILE93   THR95  
 THR96   HIS100  GLU101  VAL104  TRP108  TYR126  VAL128  SER129  ASP130  GLU131 
 SER132  LEU210  SER211  ILE212  SER213  ARG214  LYS215  ARG216  SER218  VAL219 
 MET220  ASN221  TRP222  SER223  ILE224  PRO225  VAL226  HIS232  CYS233  ILE234 
 TYR235  VAL236  TRP237  LEU238  ASP239  ALA240  LEU241  PHE242  ASN243  TYR244 
 TYR245  THR246  HIS275  VAL276  VAL277  GLY278  LYS279  ASP280  ILE281  LEU282 
 LYS283  PHE284  HIS285  ALA286  ILE287  TYR288  TRP289  PRO290  PHE292  LEU304 
 TRP309 

> <Gold.Protein.RotatedAtoms>
  -33.1240   -8.2110   -5.4438 H   0  0  0  0  0  0  0  0  0  0  0  0  # atno 4356 bound_to 100 
  -30.5092   -8.6588   -7.9995 H   0  0  0  0  0  0  0  0  0  0  0  0  # atno 4452 bound_to 380 
  -45.5815  -11.8307  -15.5024 H   0  0  0  0  0  0  0  0  0  0  0  0  # atno 4464 bound_to 112 
  -35.0957  -10.0646  -16.9356 H   0  0  0  0  0  0  0  0  0  0  0  0  # atno 4500 bound_to 391 
  -31.1778  -15.0685   -3.0125 H   0  0  0  0  0  0  0  0  0  0  0  0  # atno 4818 bound_to 65  
  -48.2782  -11.4762  -12.8170 H   0  0  0  0  0  0  0  0  0  0  0  0  # atno 4839 bound_to 441 
  -49.5464  -10.8529  -13.6833 H   0  0  0  0  0  0  0  0  0  0  0  0  # atno 4840 bound_to 441 
  -48.1513  -11.2978  -14.4599 H   0  0  0  0  0  0  0  0  0  0  0  0  # atno 4841 bound_to 441 
  -38.7028  -17.2849  -16.1875 H   0  0  0  0  0  0  0  0  0  0  0  0  # atno 4985 bound_to 758 
  -54.5349  -16.3393  -13.7023 H   0  0  0  0  0  0  0  0  0  0  0  0  # atno 5271 bound_to 1023
  -54.1920  -15.0072   -8.5486 H   0  0  0  0  0  0  0  0  0  0  0  0  # atno 5330 bound_to 1065
  -53.3846  -17.0675  -17.7022 H   0  0  0  0  0  0  0  0  0  0  0  0  # atno 6036 bound_to 1776
  -44.7956  -17.1373  -19.0892 H   0  0  0  0  0  0  0  0  0  0  0  0  # atno 6078 bound_to 1819
  -50.1984  -15.3357  -12.2967 H   0  0  0  0  0  0  0  0  0  0  0  0  # atno 6166 bound_to 1916
  -35.8618  -15.9050   -5.1125 H   0  0  0  0  0  0  0  0  0  0  0  0  # atno 6268 bound_to 1997
  -49.5683  -21.4252   -2.2086 H   0  0  0  0  0  0  0  0  0  0  0  0  # atno 6640 bound_to 2347
  -35.4520   -7.7190   -2.0350 H   0  0  0  0  0  0  0  0  0  0  0  0  # atno 8510 bound_to 202 
  -32.4688   -9.6633   -3.6291 H   0  0  0  0  0  0  0  0  0  0  0  0  # atno 8592 bound_to 72  
  -44.7661  -11.0788  -16.6931 LP  0  0  0  0  0  0  0  0  0  0  0  0  # atno 8618 bound_to 112 
  -46.0590  -10.3580  -16.0035 LP  0  0  0  0  0  0  0  0  0  0  0  0  # atno 8619 bound_to 112 
  -37.3626  -18.1634  -15.9046 LP  0  0  0  0  0  0  0  0  0  0  0  0  # atno 8637 bound_to 758 
  -37.7515  -17.7303  -17.4303 LP  0  0  0  0  0  0  0  0  0  0  0  0  # atno 8638 bound_to 758 
  -54.7016  -16.7767  -15.2608 LP  0  0  0  0  0  0  0  0  0  0  0  0  # atno 8642 bound_to 1023
  -54.2327  -17.8752  -14.1472 LP  0  0  0  0  0  0  0  0  0  0  0  0  # atno 8643 bound_to 1023
  -54.9893  -17.3333  -17.6529 LP  0  0  0  0  0  0  0  0  0  0  0  0  # atno 8662 bound_to 1776
  -54.3890  -16.1081  -18.5502 LP  0  0  0  0  0  0  0  0  0  0  0  0  # atno 8663 bound_to 1776
  -45.8206  -18.1000  -18.2703 LP  0  0  0  0  0  0  0  0  0  0  0  0  # atno 8672 bound_to 1819
  -46.2808  -17.4297  -19.6864 LP  0  0  0  0  0  0  0  0  0  0  0  0  # atno 8673 bound_to 1819
  -48.8627  -15.1151  -11.3938 LP  0  0  0  0  0  0  0  0  0  0  0  0  # atno 8684 bound_to 1916
  -50.1920  -15.7993  -10.7369 LP  0  0  0  0  0  0  0  0  0  0  0  0  # atno 8685 bound_to 1916
  -30.4511  -16.5116   -2.8187 LP  0  0  0  0  0  0  0  0  0  0  0  0  # atno 8712 bound_to 65  
  -31.6473  -16.3375   -3.9166 LP  0  0  0  0  0  0  0  0  0  0  0  0  # atno 8713 bound_to 65  
  -34.5703  -14.9647   -5.4222 LP  0  0  0  0  0  0  0  0  0  0  0  0  # atno 8724 bound_to 1997
  -34.7783  -15.6072   -3.9355 LP  0  0  0  0  0  0  0  0  0  0  0  0  # atno 8725 bound_to 1997
  -32.6288   -9.0210   -5.1157 LP  0  0  0  0  0  0  0  0  0  0  0  0  # atno 8747 bound_to 72  
  -31.4206   -8.5260   -4.1350 LP  0  0  0  0  0  0  0  0  0  0  0  0  # atno 8748 bound_to 72  
  -32.8158   -6.6306   -5.6797 LP  0  0  0  0  0  0  0  0  0  0  0  0  # atno 8749 bound_to 100 
  -31.9562   -7.7621   -6.4844 LP  0  0  0  0  0  0  0  0  0  0  0  0  # atno 8750 bound_to 100 
  -35.5038   -6.2451   -2.7228 LP  0  0  0  0  0  0  0  0  0  0  0  0  # atno 8754 bound_to 202 
  -34.9198   -6.4224   -1.2082 LP  0  0  0  0  0  0  0  0  0  0  0  0  # atno 8755 bound_to 202 
  -53.8861  -16.1001   -7.3824 LP  0  0  0  0  0  0  0  0  0  0  0  0  # atno 8775 bound_to 1065
  -54.6784  -14.7183   -7.0228 LP  0  0  0  0  0  0  0  0  0  0  0  0  # atno 8776 bound_to 1065
  -49.1195  -19.9213   -2.6388 LP  0  0  0  0  0  0  0  0  0  0  0  0  # atno 8779 bound_to 2347
  -49.0033  -20.3970   -1.0810 LP  0  0  0  0  0  0  0  0  0  0  0  0  # atno 8780 bound_to 2347
  -31.2624   -9.8143   -8.8629 LP  0  0  0  0  0  0  0  0  0  0  0  0  # atno 8787 bound_to 380 
  -30.5314   -8.5682   -9.6241 LP  0  0  0  0  0  0  0  0  0  0  0  0  # atno 8788 bound_to 380 

$$$$
